data_HKUST-1
_audit_creation_date              2025-06-13
_audit_creation_method            'Materials Studio'
_symmetry_space_group_name_H-M    'P1'
_symmetry_Int_Tables_number       1
_symmetry_cell_setting            triclinic
loop_
_symmetry_equiv_pos_as_xyz
  x,y,z
_cell_length_a                    26.2879
_cell_length_b                    26.2879
_cell_length_c                    26.2879
_cell_angle_alpha                 90.0000
_cell_angle_beta                  90.0000
_cell_angle_gamma                 90.0000
loop_
_atom_site_label
_atom_site_type_symbol
_atom_site_fract_x
_atom_site_fract_y
_atom_site_fract_z
_atom_site_U_iso_or_equiv
_atom_site_adp_type
_atom_site_occupancy
O1     O     0.31698   0.24421   0.94749   0.01111  Uiso   1.00
O2     O     0.31698   0.74421   0.44749   0.01111  Uiso   1.00
O3     O     0.81698   0.24421   0.44749   0.01111  Uiso   1.00
O4     O     0.81698   0.74421   0.94749   0.01111  Uiso   1.00
O5     O     0.68302   0.75579   0.94749   0.01111  Uiso   1.00
O6     O     0.68302   0.25579   0.44749   0.01111  Uiso   1.00
O7     O     0.18302   0.75579   0.44749   0.01111  Uiso   1.00
O8     O     0.18302   0.25579   0.94749   0.01111  Uiso   1.00
O9     O     0.68302   0.24421   0.05251   0.01111  Uiso   1.00
O10    O     0.68302   0.74421   0.55251   0.01111  Uiso   1.00
O11    O     0.18302   0.24421   0.55251   0.01111  Uiso   1.00
O12    O     0.18302   0.74421   0.05251   0.01111  Uiso   1.00
O13    O     0.31698   0.75579   0.05251   0.01111  Uiso   1.00
O14    O     0.31698   0.25579   0.55251   0.01111  Uiso   1.00
O15    O     0.81698   0.75579   0.55251   0.01111  Uiso   1.00
O16    O     0.81698   0.25579   0.05251   0.01111  Uiso   1.00
O17    O     0.94749   0.31698   0.24421   0.01111  Uiso   1.00
O18    O     0.94749   0.81698   0.74421   0.01111  Uiso   1.00
O19    O     0.44749   0.31698   0.74421   0.01111  Uiso   1.00
O20    O     0.44749   0.81698   0.24421   0.01111  Uiso   1.00
O21    O     0.94749   0.68302   0.75579   0.01111  Uiso   1.00
O22    O     0.94749   0.18302   0.25579   0.01111  Uiso   1.00
O23    O     0.44749   0.68302   0.25579   0.01111  Uiso   1.00
O24    O     0.44749   0.18302   0.75579   0.01111  Uiso   1.00
O25    O     0.05251   0.68302   0.24421   0.01111  Uiso   1.00
O26    O     0.05251   0.18302   0.74421   0.01111  Uiso   1.00
O27    O     0.55251   0.68302   0.74421   0.01111  Uiso   1.00
O28    O     0.55251   0.18302   0.24421   0.01111  Uiso   1.00
O29    O     0.05251   0.31698   0.75579   0.01111  Uiso   1.00
O30    O     0.05251   0.81698   0.25579   0.01111  Uiso   1.00
O31    O     0.55251   0.31698   0.25579   0.01111  Uiso   1.00
O32    O     0.55251   0.81698   0.75579   0.01111  Uiso   1.00
O33    O     0.24421   0.94749   0.31698   0.01111  Uiso   1.00
O34    O     0.24421   0.44749   0.81698   0.01111  Uiso   1.00
O35    O     0.74421   0.94749   0.81698   0.01111  Uiso   1.00
O36    O     0.74421   0.44749   0.31698   0.01111  Uiso   1.00
O37    O     0.75579   0.94749   0.68302   0.01111  Uiso   1.00
O38    O     0.75579   0.44749   0.18302   0.01111  Uiso   1.00
O39    O     0.25579   0.94749   0.18302   0.01111  Uiso   1.00
O40    O     0.25579   0.44749   0.68302   0.01111  Uiso   1.00
O41    O     0.24421   0.05251   0.68302   0.01111  Uiso   1.00
O42    O     0.24421   0.55251   0.18302   0.01111  Uiso   1.00
O43    O     0.74421   0.05251   0.18302   0.01111  Uiso   1.00
O44    O     0.74421   0.55251   0.68302   0.01111  Uiso   1.00
O45    O     0.75579   0.05251   0.31698   0.01111  Uiso   1.00
O46    O     0.75579   0.55251   0.81698   0.01111  Uiso   1.00
O47    O     0.25579   0.05251   0.81698   0.01111  Uiso   1.00
O48    O     0.25579   0.55251   0.31698   0.01111  Uiso   1.00
O49    O     0.24421   0.31698   0.05251   0.01111  Uiso   1.00
O50    O     0.24421   0.81698   0.55251   0.01111  Uiso   1.00
O51    O     0.74421   0.31698   0.55251   0.01111  Uiso   1.00
O52    O     0.74421   0.81698   0.05251   0.01111  Uiso   1.00
O53    O     0.75579   0.68302   0.05251   0.01111  Uiso   1.00
O54    O     0.75579   0.18302   0.55251   0.01111  Uiso   1.00
O55    O     0.25579   0.68302   0.55251   0.01111  Uiso   1.00
O56    O     0.25579   0.18302   0.05251   0.01111  Uiso   1.00
O57    O     0.24421   0.68302   0.94749   0.01111  Uiso   1.00
O58    O     0.24421   0.18302   0.44749   0.01111  Uiso   1.00
O59    O     0.74421   0.68302   0.44749   0.01111  Uiso   1.00
O60    O     0.74421   0.18302   0.94749   0.01111  Uiso   1.00
O61    O     0.75579   0.31698   0.94749   0.01111  Uiso   1.00
O62    O     0.75579   0.81698   0.44749   0.01111  Uiso   1.00
O63    O     0.25579   0.31698   0.44749   0.01111  Uiso   1.00
O64    O     0.25579   0.81698   0.94749   0.01111  Uiso   1.00
O65    O     0.31698   0.94749   0.75579   0.01111  Uiso   1.00
O66    O     0.31698   0.44749   0.25579   0.01111  Uiso   1.00
O67    O     0.81698   0.94749   0.25579   0.01111  Uiso   1.00
O68    O     0.81698   0.44749   0.75579   0.01111  Uiso   1.00
O69    O     0.68302   0.94749   0.24421   0.01111  Uiso   1.00
O70    O     0.68302   0.44749   0.74421   0.01111  Uiso   1.00
O71    O     0.18302   0.94749   0.74421   0.01111  Uiso   1.00
O72    O     0.18302   0.44749   0.24421   0.01111  Uiso   1.00
O73    O     0.68302   0.05251   0.75579   0.01111  Uiso   1.00
O74    O     0.68302   0.55251   0.25579   0.01111  Uiso   1.00
O75    O     0.18302   0.05251   0.25579   0.01111  Uiso   1.00
O76    O     0.18302   0.55251   0.75579   0.01111  Uiso   1.00
O77    O     0.31698   0.05251   0.24421   0.01111  Uiso   1.00
O78    O     0.31698   0.55251   0.74421   0.01111  Uiso   1.00
O79    O     0.81698   0.05251   0.74421   0.01111  Uiso   1.00
O80    O     0.81698   0.55251   0.24421   0.01111  Uiso   1.00
O81    O     0.94749   0.24421   0.68302   0.01111  Uiso   1.00
O82    O     0.94749   0.74421   0.18302   0.01111  Uiso   1.00
O83    O     0.44749   0.24421   0.18302   0.01111  Uiso   1.00
O84    O     0.44749   0.74421   0.68302   0.01111  Uiso   1.00
O85    O     0.94749   0.75579   0.31698   0.01111  Uiso   1.00
O86    O     0.94749   0.25579   0.81698   0.01111  Uiso   1.00
O87    O     0.44749   0.75579   0.81698   0.01111  Uiso   1.00
O88    O     0.44749   0.25579   0.31698   0.01111  Uiso   1.00
O89    O     0.05251   0.24421   0.31698   0.01111  Uiso   1.00
O90    O     0.05251   0.74421   0.81698   0.01111  Uiso   1.00
O91    O     0.55251   0.24421   0.81698   0.01111  Uiso   1.00
O92    O     0.55251   0.74421   0.31698   0.01111  Uiso   1.00
O93    O     0.05251   0.75579   0.68302   0.01111  Uiso   1.00
O94    O     0.05251   0.25579   0.18302   0.01111  Uiso   1.00
O95    O     0.55251   0.75579   0.18302   0.01111  Uiso   1.00
O96    O     0.55251   0.25579   0.68302   0.01111  Uiso   1.00
O97    O     0.68302   0.75579   0.05251   0.01111  Uiso   1.00
O98    O     0.68302   0.25579   0.55251   0.01111  Uiso   1.00
O99    O     0.18302   0.75579   0.55251   0.01111  Uiso   1.00
O100   O     0.18302   0.25579   0.05251   0.01111  Uiso   1.00
O101   O     0.31698   0.24421   0.05251   0.01111  Uiso   1.00
O102   O     0.31698   0.74421   0.55251   0.01111  Uiso   1.00
O103   O     0.81698   0.24421   0.55251   0.01111  Uiso   1.00
O104   O     0.81698   0.74421   0.05251   0.01111  Uiso   1.00
O105   O     0.31698   0.75579   0.94749   0.01111  Uiso   1.00
O106   O     0.31698   0.25579   0.44749   0.01111  Uiso   1.00
O107   O     0.81698   0.75579   0.44749   0.01111  Uiso   1.00
O108   O     0.81698   0.25579   0.94749   0.01111  Uiso   1.00
O109   O     0.68302   0.24421   0.94749   0.01111  Uiso   1.00
O110   O     0.68302   0.74421   0.44749   0.01111  Uiso   1.00
O111   O     0.18302   0.24421   0.44749   0.01111  Uiso   1.00
O112   O     0.18302   0.74421   0.94749   0.01111  Uiso   1.00
O113   O     0.05251   0.68302   0.75579   0.01111  Uiso   1.00
O114   O     0.05251   0.18302   0.25579   0.01111  Uiso   1.00
O115   O     0.55251   0.68302   0.25579   0.01111  Uiso   1.00
O116   O     0.55251   0.18302   0.75579   0.01111  Uiso   1.00
O117   O     0.05251   0.31698   0.24421   0.01111  Uiso   1.00
O118   O     0.05251   0.81698   0.74421   0.01111  Uiso   1.00
O119   O     0.55251   0.31698   0.74421   0.01111  Uiso   1.00
O120   O     0.55251   0.81698   0.24421   0.01111  Uiso   1.00
O121   O     0.94749   0.31698   0.75579   0.01111  Uiso   1.00
O122   O     0.94749   0.81698   0.25579   0.01111  Uiso   1.00
O123   O     0.44749   0.31698   0.25579   0.01111  Uiso   1.00
O124   O     0.44749   0.81698   0.75579   0.01111  Uiso   1.00
O125   O     0.94749   0.68302   0.24421   0.01111  Uiso   1.00
O126   O     0.94749   0.18302   0.74421   0.01111  Uiso   1.00
O127   O     0.44749   0.68302   0.74421   0.01111  Uiso   1.00
O128   O     0.44749   0.18302   0.24421   0.01111  Uiso   1.00
O129   O     0.75579   0.05251   0.68302   0.01111  Uiso   1.00
O130   O     0.75579   0.55251   0.18302   0.01111  Uiso   1.00
O131   O     0.25579   0.05251   0.18302   0.01111  Uiso   1.00
O132   O     0.25579   0.55251   0.68302   0.01111  Uiso   1.00
O133   O     0.24421   0.05251   0.31698   0.01111  Uiso   1.00
O134   O     0.24421   0.55251   0.81698   0.01111  Uiso   1.00
O135   O     0.74421   0.05251   0.81698   0.01111  Uiso   1.00
O136   O     0.74421   0.55251   0.31698   0.01111  Uiso   1.00
O137   O     0.75579   0.94749   0.31698   0.01111  Uiso   1.00
O138   O     0.75579   0.44749   0.81698   0.01111  Uiso   1.00
O139   O     0.25579   0.94749   0.81698   0.01111  Uiso   1.00
O140   O     0.25579   0.44749   0.31698   0.01111  Uiso   1.00
O141   O     0.24421   0.94749   0.68302   0.01111  Uiso   1.00
O142   O     0.24421   0.44749   0.18302   0.01111  Uiso   1.00
O143   O     0.74421   0.94749   0.18302   0.01111  Uiso   1.00
O144   O     0.74421   0.44749   0.68302   0.01111  Uiso   1.00
O145   O     0.75579   0.68302   0.94749   0.01111  Uiso   1.00
O146   O     0.75579   0.18302   0.44749   0.01111  Uiso   1.00
O147   O     0.25579   0.68302   0.44749   0.01111  Uiso   1.00
O148   O     0.25579   0.18302   0.94749   0.01111  Uiso   1.00
O149   O     0.24421   0.31698   0.94749   0.01111  Uiso   1.00
O150   O     0.24421   0.81698   0.44749   0.01111  Uiso   1.00
O151   O     0.74421   0.31698   0.44749   0.01111  Uiso   1.00
O152   O     0.74421   0.81698   0.94749   0.01111  Uiso   1.00
O153   O     0.75579   0.31698   0.05251   0.01111  Uiso   1.00
O154   O     0.75579   0.81698   0.55251   0.01111  Uiso   1.00
O155   O     0.25579   0.31698   0.55251   0.01111  Uiso   1.00
O156   O     0.25579   0.81698   0.05251   0.01111  Uiso   1.00
O157   O     0.24421   0.68302   0.05251   0.01111  Uiso   1.00
O158   O     0.24421   0.18302   0.55251   0.01111  Uiso   1.00
O159   O     0.74421   0.68302   0.55251   0.01111  Uiso   1.00
O160   O     0.74421   0.18302   0.05251   0.01111  Uiso   1.00
O161   O     0.68302   0.05251   0.24421   0.01111  Uiso   1.00
O162   O     0.68302   0.55251   0.74421   0.01111  Uiso   1.00
O163   O     0.18302   0.05251   0.74421   0.01111  Uiso   1.00
O164   O     0.18302   0.55251   0.24421   0.01111  Uiso   1.00
O165   O     0.31698   0.05251   0.75579   0.01111  Uiso   1.00
O166   O     0.31698   0.55251   0.25579   0.01111  Uiso   1.00
O167   O     0.81698   0.05251   0.25579   0.01111  Uiso   1.00
O168   O     0.81698   0.55251   0.75579   0.01111  Uiso   1.00
O169   O     0.31698   0.94749   0.24421   0.01111  Uiso   1.00
O170   O     0.31698   0.44749   0.74421   0.01111  Uiso   1.00
O171   O     0.81698   0.94749   0.74421   0.01111  Uiso   1.00
O172   O     0.81698   0.44749   0.24421   0.01111  Uiso   1.00
O173   O     0.68302   0.94749   0.75579   0.01111  Uiso   1.00
O174   O     0.68302   0.44749   0.25579   0.01111  Uiso   1.00
O175   O     0.18302   0.94749   0.25579   0.01111  Uiso   1.00
O176   O     0.18302   0.44749   0.75579   0.01111  Uiso   1.00
O177   O     0.05251   0.75579   0.31698   0.01111  Uiso   1.00
O178   O     0.05251   0.25579   0.81698   0.01111  Uiso   1.00
O179   O     0.55251   0.75579   0.81698   0.01111  Uiso   1.00
O180   O     0.55251   0.25579   0.31698   0.01111  Uiso   1.00
O181   O     0.05251   0.24421   0.68302   0.01111  Uiso   1.00
O182   O     0.05251   0.74421   0.18302   0.01111  Uiso   1.00
O183   O     0.55251   0.24421   0.18302   0.01111  Uiso   1.00
O184   O     0.55251   0.74421   0.68302   0.01111  Uiso   1.00
O185   O     0.94749   0.75579   0.68302   0.01111  Uiso   1.00
O186   O     0.94749   0.25579   0.18302   0.01111  Uiso   1.00
O187   O     0.44749   0.75579   0.18302   0.01111  Uiso   1.00
O188   O     0.44749   0.25579   0.68302   0.01111  Uiso   1.00
O189   O     0.94749   0.24421   0.31698   0.01111  Uiso   1.00
O190   O     0.94749   0.74421   0.81698   0.01111  Uiso   1.00
O191   O     0.44749   0.24421   0.81698   0.01111  Uiso   1.00
O192   O     0.44749   0.74421   0.31698   0.01111  Uiso   1.00
Cu193  Cu    0.28322   0.28322   0.00000   0.00330  Uiso   1.00
Cu194  Cu    0.28322   0.78322   0.50000   0.00330  Uiso   1.00
Cu195  Cu    0.78322   0.28322   0.50000   0.00330  Uiso   1.00
Cu196  Cu    0.78322   0.78322   0.00000   0.00330  Uiso   1.00
Cu197  Cu    0.71678   0.71678   0.00000   0.00330  Uiso   1.00
Cu198  Cu    0.71678   0.21678   0.50000   0.00330  Uiso   1.00
Cu199  Cu    0.21678   0.71678   0.50000   0.00330  Uiso   1.00
Cu200  Cu    0.21678   0.21678   0.00000   0.00330  Uiso   1.00
Cu201  Cu    0.71678   0.28322   0.00000   0.00330  Uiso   1.00
Cu202  Cu    0.71678   0.78322   0.50000   0.00330  Uiso   1.00
Cu203  Cu    0.21678   0.28322   0.50000   0.00330  Uiso   1.00
Cu204  Cu    0.21678   0.78322   0.00000   0.00330  Uiso   1.00
Cu205  Cu    0.28322   0.71678   0.00000   0.00330  Uiso   1.00
Cu206  Cu    0.28322   0.21678   0.50000   0.00330  Uiso   1.00
Cu207  Cu    0.78322   0.71678   0.50000   0.00330  Uiso   1.00
Cu208  Cu    0.78322   0.21678   0.00000   0.00330  Uiso   1.00
Cu209  Cu    0.00000   0.28322   0.28322   0.00330  Uiso   1.00
Cu210  Cu    0.00000   0.78322   0.78322   0.00330  Uiso   1.00
Cu211  Cu    0.50000   0.28322   0.78322   0.00330  Uiso   1.00
Cu212  Cu    0.50000   0.78322   0.28322   0.00330  Uiso   1.00
Cu213  Cu    0.00000   0.71678   0.71678   0.00330  Uiso   1.00
Cu214  Cu    0.00000   0.21678   0.21678   0.00330  Uiso   1.00
Cu215  Cu    0.50000   0.71678   0.21678   0.00330  Uiso   1.00
Cu216  Cu    0.50000   0.21678   0.71678   0.00330  Uiso   1.00
Cu217  Cu    0.00000   0.71678   0.28322   0.00330  Uiso   1.00
Cu218  Cu    0.00000   0.21678   0.78322   0.00330  Uiso   1.00
Cu219  Cu    0.50000   0.71678   0.78322   0.00330  Uiso   1.00
Cu220  Cu    0.50000   0.21678   0.28322   0.00330  Uiso   1.00
Cu221  Cu    0.00000   0.28322   0.71678   0.00330  Uiso   1.00
Cu222  Cu    0.00000   0.78322   0.21678   0.00330  Uiso   1.00
Cu223  Cu    0.50000   0.28322   0.21678   0.00330  Uiso   1.00
Cu224  Cu    0.50000   0.78322   0.71678   0.00330  Uiso   1.00
Cu225  Cu    0.28322   0.00000   0.28322   0.00330  Uiso   1.00
Cu226  Cu    0.28322   0.50000   0.78322   0.00330  Uiso   1.00
Cu227  Cu    0.78322   0.00000   0.78322   0.00330  Uiso   1.00
Cu228  Cu    0.78322   0.50000   0.28322   0.00330  Uiso   1.00
Cu229  Cu    0.71678   0.00000   0.71678   0.00330  Uiso   1.00
Cu230  Cu    0.71678   0.50000   0.21678   0.00330  Uiso   1.00
Cu231  Cu    0.21678   0.00000   0.21678   0.00330  Uiso   1.00
Cu232  Cu    0.21678   0.50000   0.71678   0.00330  Uiso   1.00
Cu233  Cu    0.28322   0.00000   0.71678   0.00330  Uiso   1.00
Cu234  Cu    0.28322   0.50000   0.21678   0.00330  Uiso   1.00
Cu235  Cu    0.78322   0.00000   0.21678   0.00330  Uiso   1.00
Cu236  Cu    0.78322   0.50000   0.71678   0.00330  Uiso   1.00
Cu237  Cu    0.71678   0.00000   0.28322   0.00330  Uiso   1.00
Cu238  Cu    0.71678   0.50000   0.78322   0.00330  Uiso   1.00
Cu239  Cu    0.21678   0.00000   0.78322   0.00330  Uiso   1.00
Cu240  Cu    0.21678   0.50000   0.28322   0.00330  Uiso   1.00
C241   C     0.32187   0.17813   0.88666   0.00732  Uiso   1.00
C242   C     0.29644   0.20356   0.93061   0.00993  Uiso   1.00
C243   C     0.32187   0.67813   0.38666   0.00732  Uiso   1.00
C244   C     0.29644   0.70356   0.43061   0.00993  Uiso   1.00
C245   C     0.67813   0.82187   0.88666   0.00732  Uiso   1.00
C246   C     0.70356   0.79644   0.93061   0.00993  Uiso   1.00
C247   C     0.67813   0.32187   0.38666   0.00732  Uiso   1.00
C248   C     0.70356   0.29644   0.43061   0.00993  Uiso   1.00
C249   C     0.17813   0.32187   0.88666   0.00732  Uiso   1.00
C250   C     0.20356   0.29644   0.93061   0.00993  Uiso   1.00
C251   C     0.67813   0.17813   0.11334   0.00732  Uiso   1.00
C252   C     0.70356   0.20356   0.06939   0.00993  Uiso   1.00
C253   C     0.67813   0.67813   0.61334   0.00732  Uiso   1.00
C254   C     0.70356   0.70356   0.56939   0.00993  Uiso   1.00
C255   C     0.17813   0.17813   0.61334   0.00732  Uiso   1.00
C256   C     0.20356   0.20356   0.56939   0.00993  Uiso   1.00
C257   C     0.32187   0.82187   0.11334   0.00732  Uiso   1.00
C258   C     0.29644   0.79644   0.06939   0.00993  Uiso   1.00
C259   C     0.32187   0.32187   0.61334   0.00732  Uiso   1.00
C260   C     0.29644   0.29644   0.56939   0.00993  Uiso   1.00
C261   C     0.88666   0.32187   0.17813   0.00732  Uiso   1.00
C262   C     0.93061   0.29644   0.20356   0.00993  Uiso   1.00
C263   C     0.38666   0.32187   0.67813   0.00732  Uiso   1.00
C264   C     0.43061   0.29644   0.70356   0.00993  Uiso   1.00
C265   C     0.88666   0.67813   0.82187   0.00732  Uiso   1.00
C266   C     0.93061   0.70356   0.79644   0.00993  Uiso   1.00
C267   C     0.88666   0.17813   0.32187   0.00732  Uiso   1.00
C268   C     0.93061   0.20356   0.29644   0.00993  Uiso   1.00
C269   C     0.38666   0.67813   0.32187   0.00732  Uiso   1.00
C270   C     0.43061   0.70356   0.29644   0.00993  Uiso   1.00
C271   C     0.11334   0.67813   0.17813   0.00732  Uiso   1.00
C272   C     0.06939   0.70356   0.20356   0.00993  Uiso   1.00
C273   C     0.61334   0.67813   0.67813   0.00732  Uiso   1.00
C274   C     0.56939   0.70356   0.70356   0.00993  Uiso   1.00
C275   C     0.61334   0.17813   0.17813   0.00732  Uiso   1.00
C276   C     0.56939   0.20356   0.20356   0.00993  Uiso   1.00
C277   C     0.11334   0.32187   0.82187   0.00732  Uiso   1.00
C278   C     0.06939   0.29644   0.79644   0.00993  Uiso   1.00
C279   C     0.61334   0.32187   0.32187   0.00732  Uiso   1.00
C280   C     0.56939   0.29644   0.29644   0.00993  Uiso   1.00
C281   C     0.17813   0.88666   0.32187   0.00732  Uiso   1.00
C282   C     0.20356   0.93061   0.29644   0.00993  Uiso   1.00
C283   C     0.17813   0.38666   0.82187   0.00732  Uiso   1.00
C284   C     0.20356   0.43061   0.79644   0.00993  Uiso   1.00
C285   C     0.82187   0.88666   0.67813   0.00732  Uiso   1.00
C286   C     0.79644   0.93061   0.70356   0.00993  Uiso   1.00
C287   C     0.82187   0.38666   0.17813   0.00732  Uiso   1.00
C288   C     0.79644   0.43061   0.20356   0.00993  Uiso   1.00
C289   C     0.32187   0.88666   0.17813   0.00732  Uiso   1.00
C290   C     0.29644   0.93061   0.20356   0.00993  Uiso   1.00
C291   C     0.17813   0.11334   0.67813   0.00732  Uiso   1.00
C292   C     0.20356   0.06939   0.70356   0.00993  Uiso   1.00
C293   C     0.17813   0.61334   0.17813   0.00732  Uiso   1.00
C294   C     0.20356   0.56939   0.20356   0.00993  Uiso   1.00
C295   C     0.82187   0.11334   0.32187   0.00732  Uiso   1.00
C296   C     0.79644   0.06939   0.29644   0.00993  Uiso   1.00
C297   C     0.82187   0.61334   0.82187   0.00732  Uiso   1.00
C298   C     0.79644   0.56939   0.79644   0.00993  Uiso   1.00
C299   C     0.32187   0.61334   0.32187   0.00732  Uiso   1.00
C300   C     0.29644   0.56939   0.29644   0.00993  Uiso   1.00
C301   C     0.17813   0.32187   0.11334   0.00732  Uiso   1.00
C302   C     0.20356   0.29644   0.06939   0.00993  Uiso   1.00
C303   C     0.17813   0.82187   0.61334   0.00732  Uiso   1.00
C304   C     0.20356   0.79644   0.56939   0.00993  Uiso   1.00
C305   C     0.82187   0.67813   0.11334   0.00732  Uiso   1.00
C306   C     0.79644   0.70356   0.06939   0.00993  Uiso   1.00
C307   C     0.82187   0.17813   0.61334   0.00732  Uiso   1.00
C308   C     0.79644   0.20356   0.56939   0.00993  Uiso   1.00
C309   C     0.32187   0.17813   0.11334   0.00732  Uiso   1.00
C310   C     0.29644   0.20356   0.06939   0.00993  Uiso   1.00
C311   C     0.17813   0.67813   0.88666   0.00732  Uiso   1.00
C312   C     0.20356   0.70356   0.93061   0.00993  Uiso   1.00
C313   C     0.17813   0.17813   0.38666   0.00732  Uiso   1.00
C314   C     0.20356   0.20356   0.43061   0.00993  Uiso   1.00
C315   C     0.82187   0.32187   0.88666   0.00732  Uiso   1.00
C316   C     0.79644   0.29644   0.93061   0.00993  Uiso   1.00
C317   C     0.82187   0.82187   0.38666   0.00732  Uiso   1.00
C318   C     0.79644   0.79644   0.43061   0.00993  Uiso   1.00
C319   C     0.32187   0.32187   0.38666   0.00732  Uiso   1.00
C320   C     0.29644   0.29644   0.43061   0.00993  Uiso   1.00
C321   C     0.32187   0.88666   0.82187   0.00732  Uiso   1.00
C322   C     0.29644   0.93061   0.79644   0.00993  Uiso   1.00
C323   C     0.32187   0.38666   0.32187   0.00732  Uiso   1.00
C324   C     0.29644   0.43061   0.29644   0.00993  Uiso   1.00
C325   C     0.67813   0.88666   0.17813   0.00732  Uiso   1.00
C326   C     0.70356   0.93061   0.20356   0.00993  Uiso   1.00
C327   C     0.67813   0.38666   0.67813   0.00732  Uiso   1.00
C328   C     0.70356   0.43061   0.70356   0.00993  Uiso   1.00
C329   C     0.17813   0.38666   0.17813   0.00732  Uiso   1.00
C330   C     0.20356   0.43061   0.20356   0.00993  Uiso   1.00
C331   C     0.67813   0.11334   0.82187   0.00732  Uiso   1.00
C332   C     0.70356   0.06939   0.79644   0.00993  Uiso   1.00
C333   C     0.67813   0.61334   0.32187   0.00732  Uiso   1.00
C334   C     0.70356   0.56939   0.29644   0.00993  Uiso   1.00
C335   C     0.17813   0.11334   0.32187   0.00732  Uiso   1.00
C336   C     0.20356   0.06939   0.29644   0.00993  Uiso   1.00
C337   C     0.32187   0.11334   0.17813   0.00732  Uiso   1.00
C338   C     0.29644   0.06939   0.20356   0.00993  Uiso   1.00
C339   C     0.32187   0.61334   0.67813   0.00732  Uiso   1.00
C340   C     0.29644   0.56939   0.70356   0.00993  Uiso   1.00
C341   C     0.88666   0.17813   0.67813   0.00732  Uiso   1.00
C342   C     0.93061   0.20356   0.70356   0.00993  Uiso   1.00
C343   C     0.38666   0.17813   0.17813   0.00732  Uiso   1.00
C344   C     0.43061   0.20356   0.20356   0.00993  Uiso   1.00
C345   C     0.88666   0.82187   0.32187   0.00732  Uiso   1.00
C346   C     0.93061   0.79644   0.29644   0.00993  Uiso   1.00
C347   C     0.38666   0.82187   0.82187   0.00732  Uiso   1.00
C348   C     0.43061   0.79644   0.79644   0.00993  Uiso   1.00
C349   C     0.38666   0.32187   0.32187   0.00732  Uiso   1.00
C350   C     0.43061   0.29644   0.29644   0.00993  Uiso   1.00
C351   C     0.11334   0.17813   0.32187   0.00732  Uiso   1.00
C352   C     0.06939   0.20356   0.29644   0.00993  Uiso   1.00
C353   C     0.61334   0.17813   0.82187   0.00732  Uiso   1.00
C354   C     0.56939   0.20356   0.79644   0.00993  Uiso   1.00
C355   C     0.11334   0.82187   0.67813   0.00732  Uiso   1.00
C356   C     0.06939   0.79644   0.70356   0.00993  Uiso   1.00
C357   C     0.11334   0.32187   0.17813   0.00732  Uiso   1.00
C358   C     0.06939   0.29644   0.20356   0.00993  Uiso   1.00
C359   C     0.61334   0.82187   0.17813   0.00732  Uiso   1.00
C360   C     0.56939   0.79644   0.20356   0.00993  Uiso   1.00
C361   C     0.67813   0.82187   0.11334   0.00732  Uiso   1.00
C362   C     0.70356   0.79644   0.06939   0.00993  Uiso   1.00
C363   C     0.67813   0.32187   0.61334   0.00732  Uiso   1.00
C364   C     0.70356   0.29644   0.56939   0.00993  Uiso   1.00
C365   C     0.32187   0.67813   0.61334   0.00732  Uiso   1.00
C366   C     0.29644   0.70356   0.56939   0.00993  Uiso   1.00
C367   C     0.32187   0.82187   0.88666   0.00732  Uiso   1.00
C368   C     0.29644   0.79644   0.93061   0.00993  Uiso   1.00
C369   C     0.67813   0.17813   0.88666   0.00732  Uiso   1.00
C370   C     0.70356   0.20356   0.93061   0.00993  Uiso   1.00
C371   C     0.67813   0.67813   0.38666   0.00732  Uiso   1.00
C372   C     0.70356   0.70356   0.43061   0.00993  Uiso   1.00
C373   C     0.11334   0.67813   0.82187   0.00732  Uiso   1.00
C374   C     0.06939   0.70356   0.79644   0.00993  Uiso   1.00
C375   C     0.61334   0.67813   0.32187   0.00732  Uiso   1.00
C376   C     0.56939   0.70356   0.29644   0.00993  Uiso   1.00
C377   C     0.61334   0.32187   0.67813   0.00732  Uiso   1.00
C378   C     0.56939   0.29644   0.70356   0.00993  Uiso   1.00
C379   C     0.88666   0.32187   0.82187   0.00732  Uiso   1.00
C380   C     0.93061   0.29644   0.79644   0.00993  Uiso   1.00
C381   C     0.88666   0.67813   0.17813   0.00732  Uiso   1.00
C382   C     0.93061   0.70356   0.20356   0.00993  Uiso   1.00
C383   C     0.38666   0.67813   0.67813   0.00732  Uiso   1.00
C384   C     0.43061   0.70356   0.70356   0.00993  Uiso   1.00
C385   C     0.82187   0.11334   0.67813   0.00732  Uiso   1.00
C386   C     0.79644   0.06939   0.70356   0.00993  Uiso   1.00
C387   C     0.82187   0.61334   0.17813   0.00732  Uiso   1.00
C388   C     0.79644   0.56939   0.20356   0.00993  Uiso   1.00
C389   C     0.17813   0.61334   0.82187   0.00732  Uiso   1.00
C390   C     0.20356   0.56939   0.79644   0.00993  Uiso   1.00
C391   C     0.82187   0.88666   0.32187   0.00732  Uiso   1.00
C392   C     0.79644   0.93061   0.29644   0.00993  Uiso   1.00
C393   C     0.82187   0.38666   0.82187   0.00732  Uiso   1.00
C394   C     0.79644   0.43061   0.79644   0.00993  Uiso   1.00
C395   C     0.17813   0.88666   0.67813   0.00732  Uiso   1.00
C396   C     0.20356   0.93061   0.70356   0.00993  Uiso   1.00
C397   C     0.82187   0.67813   0.88666   0.00732  Uiso   1.00
C398   C     0.79644   0.70356   0.93061   0.00993  Uiso   1.00
C399   C     0.82187   0.17813   0.38666   0.00732  Uiso   1.00
C400   C     0.79644   0.20356   0.43061   0.00993  Uiso   1.00
C401   C     0.17813   0.82187   0.38666   0.00732  Uiso   1.00
C402   C     0.20356   0.79644   0.43061   0.00993  Uiso   1.00
C403   C     0.82187   0.32187   0.11334   0.00732  Uiso   1.00
C404   C     0.79644   0.29644   0.06939   0.00993  Uiso   1.00
C405   C     0.82187   0.82187   0.61334   0.00732  Uiso   1.00
C406   C     0.79644   0.79644   0.56939   0.00993  Uiso   1.00
C407   C     0.17813   0.67813   0.11334   0.00732  Uiso   1.00
C408   C     0.20356   0.70356   0.06939   0.00993  Uiso   1.00
C409   C     0.67813   0.11334   0.17813   0.00732  Uiso   1.00
C410   C     0.70356   0.06939   0.20356   0.00993  Uiso   1.00
C411   C     0.67813   0.61334   0.67813   0.00732  Uiso   1.00
C412   C     0.70356   0.56939   0.70356   0.00993  Uiso   1.00
C413   C     0.32187   0.11334   0.82187   0.00732  Uiso   1.00
C414   C     0.29644   0.06939   0.79644   0.00993  Uiso   1.00
C415   C     0.32187   0.38666   0.67813   0.00732  Uiso   1.00
C416   C     0.29644   0.43061   0.70356   0.00993  Uiso   1.00
C417   C     0.67813   0.88666   0.82187   0.00732  Uiso   1.00
C418   C     0.70356   0.93061   0.79644   0.00993  Uiso   1.00
C419   C     0.67813   0.38666   0.32187   0.00732  Uiso   1.00
C420   C     0.70356   0.43061   0.29644   0.00993  Uiso   1.00
C421   C     0.11334   0.82187   0.32187   0.00732  Uiso   1.00
C422   C     0.06939   0.79644   0.29644   0.00993  Uiso   1.00
C423   C     0.61334   0.82187   0.82187   0.00732  Uiso   1.00
C424   C     0.56939   0.79644   0.79644   0.00993  Uiso   1.00
C425   C     0.11334   0.17813   0.67813   0.00732  Uiso   1.00
C426   C     0.06939   0.20356   0.70356   0.00993  Uiso   1.00
C427   C     0.88666   0.82187   0.67813   0.00732  Uiso   1.00
C428   C     0.93061   0.79644   0.70356   0.00993  Uiso   1.00
C429   C     0.38666   0.82187   0.17813   0.00732  Uiso   1.00
C430   C     0.43061   0.79644   0.20356   0.00993  Uiso   1.00
C431   C     0.38666   0.17813   0.82187   0.00732  Uiso   1.00
C432   C     0.43061   0.20356   0.79644   0.00993  Uiso   1.00
C433   C     0.36497   0.20129   0.86497   0.01122  Uiso   1.00
H434   H     0.38019   0.23407   0.88019   0.02832  Uiso   1.00
C435   C     0.36497   0.70129   0.36497   0.01122  Uiso   1.00
H436   H     0.38019   0.73407   0.38019   0.02832  Uiso   1.00
C437   C     0.63503   0.79871   0.86497   0.01122  Uiso   1.00
H438   H     0.61981   0.76593   0.88019   0.02832  Uiso   1.00
C439   C     0.63503   0.29871   0.36497   0.01122  Uiso   1.00
H440   H     0.61981   0.26593   0.38019   0.02832  Uiso   1.00
C441   C     0.13503   0.79871   0.36497   0.01122  Uiso   1.00
H442   H     0.11981   0.76593   0.38019   0.02832  Uiso   1.00
C443   C     0.63503   0.20129   0.13503   0.01122  Uiso   1.00
H444   H     0.61981   0.23407   0.11981   0.02832  Uiso   1.00
C445   C     0.63503   0.70129   0.63503   0.01122  Uiso   1.00
H446   H     0.61981   0.73407   0.61981   0.02832  Uiso   1.00
C447   C     0.13503   0.70129   0.13503   0.01122  Uiso   1.00
H448   H     0.11981   0.73407   0.11981   0.02832  Uiso   1.00
C449   C     0.36497   0.79871   0.13503   0.01122  Uiso   1.00
H450   H     0.38019   0.76593   0.11981   0.02832  Uiso   1.00
C451   C     0.36497   0.29871   0.63503   0.01122  Uiso   1.00
H452   H     0.38019   0.26593   0.61981   0.02832  Uiso   1.00
C453   C     0.86497   0.36497   0.20129   0.01122  Uiso   1.00
H454   H     0.88019   0.38019   0.23407   0.02832  Uiso   1.00
C455   C     0.86497   0.86497   0.70129   0.01122  Uiso   1.00
H456   H     0.88019   0.88019   0.73407   0.02832  Uiso   1.00
C457   C     0.36497   0.36497   0.70129   0.01122  Uiso   1.00
H458   H     0.38019   0.38019   0.73407   0.02832  Uiso   1.00
C459   C     0.86497   0.63503   0.79871   0.01122  Uiso   1.00
H460   H     0.88019   0.61981   0.76593   0.02832  Uiso   1.00
C461   C     0.86497   0.13503   0.29871   0.01122  Uiso   1.00
H462   H     0.88019   0.11981   0.26593   0.02832  Uiso   1.00
C463   C     0.36497   0.13503   0.79871   0.01122  Uiso   1.00
H464   H     0.38019   0.11981   0.76593   0.02832  Uiso   1.00
C465   C     0.13503   0.63503   0.20129   0.01122  Uiso   1.00
H466   H     0.11981   0.61981   0.23407   0.02832  Uiso   1.00
C467   C     0.13503   0.13503   0.70129   0.01122  Uiso   1.00
H468   H     0.11981   0.11981   0.73407   0.02832  Uiso   1.00
C469   C     0.13503   0.36497   0.79871   0.01122  Uiso   1.00
H470   H     0.11981   0.38019   0.76593   0.02832  Uiso   1.00
C471   C     0.13503   0.86497   0.29871   0.01122  Uiso   1.00
H472   H     0.11981   0.88019   0.26593   0.02832  Uiso   1.00
C473   C     0.20129   0.86497   0.36497   0.01122  Uiso   1.00
H474   H     0.23407   0.88019   0.38019   0.02832  Uiso   1.00
C475   C     0.70129   0.86497   0.86497   0.01122  Uiso   1.00
H476   H     0.73407   0.88019   0.88019   0.02832  Uiso   1.00
C477   C     0.70129   0.36497   0.36497   0.01122  Uiso   1.00
H478   H     0.73407   0.38019   0.38019   0.02832  Uiso   1.00
C479   C     0.79871   0.86497   0.63503   0.01122  Uiso   1.00
H480   H     0.76593   0.88019   0.61981   0.02832  Uiso   1.00
C481   C     0.79871   0.36497   0.13503   0.01122  Uiso   1.00
H482   H     0.76593   0.38019   0.11981   0.02832  Uiso   1.00
C483   C     0.29871   0.86497   0.13503   0.01122  Uiso   1.00
H484   H     0.26593   0.88019   0.11981   0.02832  Uiso   1.00
C485   C     0.20129   0.13503   0.63503   0.01122  Uiso   1.00
H486   H     0.23407   0.11981   0.61981   0.02832  Uiso   1.00
C487   C     0.70129   0.13503   0.13503   0.01122  Uiso   1.00
H488   H     0.73407   0.11981   0.11981   0.02832  Uiso   1.00
C489   C     0.79871   0.13503   0.36497   0.01122  Uiso   1.00
H490   H     0.76593   0.11981   0.38019   0.02832  Uiso   1.00
C491   C     0.29871   0.13503   0.86497   0.01122  Uiso   1.00
H492   H     0.26593   0.11981   0.88019   0.02832  Uiso   1.00
C493   C     0.20129   0.36497   0.13503   0.01122  Uiso   1.00
H494   H     0.23407   0.38019   0.11981   0.02832  Uiso   1.00
C495   C     0.70129   0.36497   0.63503   0.01122  Uiso   1.00
H496   H     0.73407   0.38019   0.61981   0.02832  Uiso   1.00
C497   C     0.79871   0.63503   0.13503   0.01122  Uiso   1.00
H498   H     0.76593   0.61981   0.11981   0.02832  Uiso   1.00
C499   C     0.29871   0.63503   0.63503   0.01122  Uiso   1.00
H500   H     0.26593   0.61981   0.61981   0.02832  Uiso   1.00
C501   C     0.29871   0.13503   0.13503   0.01122  Uiso   1.00
H502   H     0.26593   0.11981   0.11981   0.02832  Uiso   1.00
C503   C     0.20129   0.63503   0.86497   0.01122  Uiso   1.00
H504   H     0.23407   0.61981   0.88019   0.02832  Uiso   1.00
C505   C     0.20129   0.13503   0.36497   0.01122  Uiso   1.00
H506   H     0.23407   0.11981   0.38019   0.02832  Uiso   1.00
C507   C     0.70129   0.63503   0.36497   0.01122  Uiso   1.00
H508   H     0.73407   0.61981   0.38019   0.02832  Uiso   1.00
C509   C     0.79871   0.36497   0.86497   0.01122  Uiso   1.00
H510   H     0.76593   0.38019   0.88019   0.02832  Uiso   1.00
C511   C     0.29871   0.36497   0.36497   0.01122  Uiso   1.00
H512   H     0.26593   0.38019   0.38019   0.02832  Uiso   1.00
C513   C     0.36497   0.86497   0.79871   0.01122  Uiso   1.00
H514   H     0.38019   0.88019   0.76593   0.02832  Uiso   1.00
C515   C     0.36497   0.36497   0.29871   0.01122  Uiso   1.00
H516   H     0.38019   0.38019   0.26593   0.02832  Uiso   1.00
C517   C     0.63503   0.86497   0.20129   0.01122  Uiso   1.00
H518   H     0.61981   0.88019   0.23407   0.02832  Uiso   1.00
C519   C     0.63503   0.36497   0.70129   0.01122  Uiso   1.00
H520   H     0.61981   0.38019   0.73407   0.02832  Uiso   1.00
C521   C     0.13503   0.36497   0.20129   0.01122  Uiso   1.00
H522   H     0.11981   0.38019   0.23407   0.02832  Uiso   1.00
C523   C     0.63503   0.13503   0.79871   0.01122  Uiso   1.00
H524   H     0.61981   0.11981   0.76593   0.02832  Uiso   1.00
C525   C     0.63503   0.63503   0.29871   0.01122  Uiso   1.00
H526   H     0.61981   0.61981   0.26593   0.02832  Uiso   1.00
C527   C     0.13503   0.13503   0.29871   0.01122  Uiso   1.00
H528   H     0.11981   0.11981   0.26593   0.02832  Uiso   1.00
C529   C     0.36497   0.13503   0.20129   0.01122  Uiso   1.00
H530   H     0.38019   0.11981   0.23407   0.02832  Uiso   1.00
C531   C     0.36497   0.63503   0.70129   0.01122  Uiso   1.00
H532   H     0.38019   0.61981   0.73407   0.02832  Uiso   1.00
C533   C     0.86497   0.20129   0.63503   0.01122  Uiso   1.00
H534   H     0.88019   0.23407   0.61981   0.02832  Uiso   1.00
C535   C     0.86497   0.70129   0.13503   0.01122  Uiso   1.00
H536   H     0.88019   0.73407   0.11981   0.02832  Uiso   1.00
C537   C     0.36497   0.20129   0.13503   0.01122  Uiso   1.00
H538   H     0.38019   0.23407   0.11981   0.02832  Uiso   1.00
C539   C     0.86497   0.79871   0.36497   0.01122  Uiso   1.00
H540   H     0.88019   0.76593   0.38019   0.02832  Uiso   1.00
C541   C     0.86497   0.29871   0.86497   0.01122  Uiso   1.00
H542   H     0.88019   0.26593   0.88019   0.02832  Uiso   1.00
C543   C     0.36497   0.29871   0.36497   0.01122  Uiso   1.00
H544   H     0.38019   0.26593   0.38019   0.02832  Uiso   1.00
C545   C     0.13503   0.20129   0.36497   0.01122  Uiso   1.00
H546   H     0.11981   0.23407   0.38019   0.02832  Uiso   1.00
C547   C     0.13503   0.70129   0.86497   0.01122  Uiso   1.00
H548   H     0.11981   0.73407   0.88019   0.02832  Uiso   1.00
C549   C     0.13503   0.79871   0.63503   0.01122  Uiso   1.00
H550   H     0.11981   0.76593   0.61981   0.02832  Uiso   1.00
C551   C     0.13503   0.29871   0.13503   0.01122  Uiso   1.00
H552   H     0.11981   0.26593   0.11981   0.02832  Uiso   1.00
C553   C     0.63503   0.79871   0.13503   0.01122  Uiso   1.00
H554   H     0.61981   0.76593   0.11981   0.02832  Uiso   1.00
C555   C     0.63503   0.29871   0.63503   0.01122  Uiso   1.00
H556   H     0.61981   0.26593   0.61981   0.02832  Uiso   1.00
C557   C     0.36497   0.70129   0.63503   0.01122  Uiso   1.00
H558   H     0.38019   0.73407   0.61981   0.02832  Uiso   1.00
C559   C     0.36497   0.79871   0.86497   0.01122  Uiso   1.00
H560   H     0.38019   0.76593   0.88019   0.02832  Uiso   1.00
C561   C     0.63503   0.20129   0.86497   0.01122  Uiso   1.00
H562   H     0.61981   0.23407   0.88019   0.02832  Uiso   1.00
C563   C     0.63503   0.70129   0.36497   0.01122  Uiso   1.00
H564   H     0.61981   0.73407   0.38019   0.02832  Uiso   1.00
C565   C     0.13503   0.63503   0.79871   0.01122  Uiso   1.00
H566   H     0.11981   0.61981   0.76593   0.02832  Uiso   1.00
C567   C     0.13503   0.86497   0.70129   0.01122  Uiso   1.00
H568   H     0.11981   0.88019   0.73407   0.02832  Uiso   1.00
C569   C     0.86497   0.36497   0.79871   0.01122  Uiso   1.00
H570   H     0.88019   0.38019   0.76593   0.02832  Uiso   1.00
C571   C     0.86497   0.86497   0.29871   0.01122  Uiso   1.00
H572   H     0.88019   0.88019   0.26593   0.02832  Uiso   1.00
C573   C     0.86497   0.63503   0.20129   0.01122  Uiso   1.00
H574   H     0.88019   0.61981   0.23407   0.02832  Uiso   1.00
C575   C     0.86497   0.13503   0.70129   0.01122  Uiso   1.00
H576   H     0.88019   0.11981   0.73407   0.02832  Uiso   1.00
C577   C     0.79871   0.13503   0.63503   0.01122  Uiso   1.00
H578   H     0.76593   0.11981   0.61981   0.02832  Uiso   1.00
C579   C     0.70129   0.13503   0.86497   0.01122  Uiso   1.00
H580   H     0.73407   0.11981   0.88019   0.02832  Uiso   1.00
C581   C     0.79871   0.86497   0.36497   0.01122  Uiso   1.00
H582   H     0.76593   0.88019   0.38019   0.02832  Uiso   1.00
C583   C     0.29871   0.86497   0.86497   0.01122  Uiso   1.00
H584   H     0.26593   0.88019   0.88019   0.02832  Uiso   1.00
C585   C     0.20129   0.86497   0.63503   0.01122  Uiso   1.00
H586   H     0.23407   0.88019   0.61981   0.02832  Uiso   1.00
C587   C     0.70129   0.86497   0.13503   0.01122  Uiso   1.00
H588   H     0.73407   0.88019   0.11981   0.02832  Uiso   1.00
C589   C     0.79871   0.63503   0.86497   0.01122  Uiso   1.00
H590   H     0.76593   0.61981   0.88019   0.02832  Uiso   1.00
C591   C     0.29871   0.63503   0.36497   0.01122  Uiso   1.00
H592   H     0.26593   0.61981   0.38019   0.02832  Uiso   1.00
C593   C     0.20129   0.36497   0.86497   0.01122  Uiso   1.00
H594   H     0.23407   0.38019   0.88019   0.02832  Uiso   1.00
C595   C     0.29871   0.36497   0.63503   0.01122  Uiso   1.00
H596   H     0.26593   0.38019   0.61981   0.02832  Uiso   1.00
C597   C     0.20129   0.63503   0.13503   0.01122  Uiso   1.00
H598   H     0.23407   0.61981   0.11981   0.02832  Uiso   1.00
C599   C     0.70129   0.63503   0.63503   0.01122  Uiso   1.00
H600   H     0.73407   0.61981   0.61981   0.02832  Uiso   1.00
C601   C     0.63503   0.13503   0.20129   0.01122  Uiso   1.00
H602   H     0.61981   0.11981   0.23407   0.02832  Uiso   1.00
C603   C     0.63503   0.63503   0.70129   0.01122  Uiso   1.00
H604   H     0.61981   0.61981   0.73407   0.02832  Uiso   1.00
C605   C     0.36497   0.63503   0.29871   0.01122  Uiso   1.00
H606   H     0.38019   0.61981   0.26593   0.02832  Uiso   1.00
C607   C     0.36497   0.86497   0.20129   0.01122  Uiso   1.00
H608   H     0.38019   0.88019   0.23407   0.02832  Uiso   1.00
C609   C     0.63503   0.86497   0.79871   0.01122  Uiso   1.00
H610   H     0.61981   0.88019   0.76593   0.02832  Uiso   1.00
C611   C     0.63503   0.36497   0.29871   0.01122  Uiso   1.00
H612   H     0.61981   0.38019   0.26593   0.02832  Uiso   1.00
C613   C     0.13503   0.29871   0.86497   0.01122  Uiso   1.00
H614   H     0.11981   0.26593   0.88019   0.02832  Uiso   1.00
C615   C     0.13503   0.20129   0.63503   0.01122  Uiso   1.00
H616   H     0.11981   0.23407   0.61981   0.02832  Uiso   1.00
C617   C     0.86497   0.79871   0.63503   0.01122  Uiso   1.00
H618   H     0.88019   0.76593   0.61981   0.02832  Uiso   1.00
C619   C     0.86497   0.29871   0.13503   0.01122  Uiso   1.00
H620   H     0.88019   0.26593   0.11981   0.02832  Uiso   1.00
C621   C     0.86497   0.20129   0.36497   0.01122  Uiso   1.00
H622   H     0.88019   0.23407   0.38019   0.02832  Uiso   1.00
C623   C     0.86497   0.70129   0.86497   0.01122  Uiso   1.00
H624   H     0.88019   0.73407   0.88019   0.02832  Uiso   1.00
loop_
_geom_bond_atom_site_label_1
_geom_bond_atom_site_label_2
_geom_bond_distance
_geom_bond_site_symmetry_2
_ccdc_geom_bond_type
O1     Cu193   1.935   1_556 S
O1     C242    1.277   .     S
O2     Cu194   1.935   .     S
O2     C244    1.277   .     S
O3     Cu195   1.935   .     S
O3     C400    1.277   .     S
O4     Cu196   1.935   1_556 S
O4     C398    1.277   .     S
O5     Cu197   1.935   1_556 S
O5     C246    1.277   .     S
O6     Cu198   1.935   .     S
O6     C248    1.277   .     S
O7     Cu199   1.935   .     S
O7     C402    1.277   .     S
O8     Cu200   1.935   1_556 S
O8     C250    1.277   .     S
O9     Cu201   1.935   .     S
O9     C252    1.277   .     S
O10    Cu202   1.935   .     S
O10    C254    1.277   .     S
O11    Cu203   1.935   .     S
O11    C256    1.277   .     S
O12    Cu204   1.935   .     S
O12    C408    1.277   .     S
O13    Cu205   1.935   .     S
O13    C258    1.277   .     S
O14    Cu206   1.935   .     S
O14    C260    1.277   .     S
O15    Cu207   1.935   .     S
O15    C406    1.277   .     S
O16    Cu208   1.935   .     S
O16    C404    1.277   .     S
O17    Cu209   1.935   1_655 S
O17    C262    1.277   .     S
O18    Cu210   1.935   1_655 S
O18    C428    1.277   .     S
O19    Cu211   1.935   .     S
O19    C264    1.277   .     S
O20    Cu212   1.935   .     S
O20    C430    1.277   .     S
O21    Cu213   1.935   1_655 S
O21    C266    1.277   .     S
O22    Cu214   1.935   1_655 S
O22    C268    1.277   .     S
O23    Cu215   1.935   .     S
O23    C270    1.277   .     S
O24    Cu216   1.935   .     S
O24    C432    1.277   .     S
O25    Cu217   1.935   .     S
O25    C272    1.277   .     S
O26    Cu218   1.935   .     S
O26    C426    1.277   .     S
O27    Cu219   1.935   .     S
O27    C274    1.277   .     S
O28    Cu220   1.935   .     S
O28    C276    1.277   .     S
O29    Cu221   1.935   .     S
O29    C278    1.277   .     S
O30    Cu222   1.935   .     S
O30    C422    1.277   .     S
O31    Cu223   1.935   .     S
O31    C280    1.277   .     S
O32    Cu224   1.935   .     S
O32    C424    1.277   .     S
O33    Cu225   1.935   1_565 S
O33    C282    1.277   .     S
O34    Cu226   1.935   .     S
O34    C284    1.277   .     S
O35    Cu227   1.935   1_565 S
O35    C418    1.277   .     S
O36    Cu228   1.935   .     S
O36    C420    1.277   .     S
O37    Cu229   1.935   1_565 S
O37    C286    1.277   .     S
O38    Cu230   1.935   .     S
O38    C288    1.277   .     S
O39    Cu231   1.935   1_565 S
O39    C290    1.277   .     S
O40    Cu232   1.935   .     S
O40    C416    1.277   .     S
O41    Cu233   1.935   .     S
O41    C292    1.277   .     S
O42    Cu234   1.935   .     S
O42    C294    1.277   .     S
O43    Cu235   1.935   .     S
O43    C410    1.277   .     S
O44    Cu236   1.935   .     S
O44    C412    1.277   .     S
O45    Cu237   1.935   .     S
O45    C296    1.277   .     S
O46    Cu238   1.935   .     S
O46    C298    1.277   .     S
O47    Cu239   1.935   .     S
O47    C414    1.277   .     S
O48    Cu240   1.935   .     S
O48    C300    1.277   .     S
O49    Cu193   1.935   .     S
O49    C302    1.277   .     S
O50    Cu194   1.935   .     S
O50    C304    1.277   .     S
O51    Cu195   1.935   .     S
O51    C364    1.277   .     S
O52    Cu196   1.935   .     S
O52    C362    1.277   .     S
O53    Cu197   1.935   .     S
O53    C306    1.277   .     S
O54    Cu198   1.935   .     S
O54    C308    1.277   .     S
O55    Cu199   1.935   .     S
O55    C366    1.277   .     S
O56    Cu200   1.935   .     S
O56    C310    1.277   .     S
O57    Cu205   1.935   1_556 S
O57    C312    1.277   .     S
O58    Cu206   1.935   .     S
O58    C314    1.277   .     S
O59    Cu207   1.935   .     S
O59    C372    1.277   .     S
O60    Cu208   1.935   1_556 S
O60    C370    1.277   .     S
O61    Cu201   1.935   1_556 S
O61    C316    1.277   .     S
O62    Cu202   1.935   .     S
O62    C318    1.277   .     S
O63    Cu203   1.935   .     S
O63    C320    1.277   .     S
O64    Cu204   1.935   1_556 S
O64    C368    1.277   .     S
O65    Cu233   1.935   1_565 S
O65    C322    1.277   .     S
O66    Cu234   1.935   .     S
O66    C324    1.277   .     S
O67    Cu235   1.935   1_565 S
O67    C392    1.277   .     S
O68    Cu236   1.935   .     S
O68    C394    1.277   .     S
O69    Cu237   1.935   1_565 S
O69    C326    1.277   .     S
O70    Cu238   1.935   .     S
O70    C328    1.277   .     S
O71    Cu239   1.935   1_565 S
O71    C396    1.277   .     S
O72    Cu240   1.935   .     S
O72    C330    1.277   .     S
O73    Cu229   1.935   .     S
O73    C332    1.277   .     S
O74    Cu230   1.935   .     S
O74    C334    1.277   .     S
O75    Cu231   1.935   .     S
O75    C336    1.277   .     S
O76    Cu232   1.935   .     S
O76    C390    1.277   .     S
O77    Cu225   1.935   .     S
O77    C338    1.277   .     S
O78    Cu226   1.935   .     S
O78    C340    1.277   .     S
O79    Cu227   1.935   .     S
O79    C386    1.277   .     S
O80    Cu228   1.935   .     S
O80    C388    1.277   .     S
O81    Cu221   1.935   1_655 S
O81    C342    1.277   .     S
O82    Cu222   1.935   1_655 S
O82    C382    1.277   .     S
O83    Cu223   1.935   .     S
O83    C344    1.277   .     S
O84    Cu224   1.935   .     S
O84    C384    1.277   .     S
O85    Cu217   1.935   1_655 S
O85    C346    1.277   .     S
O86    Cu218   1.935   1_655 S
O86    C380    1.277   .     S
O87    Cu219   1.935   .     S
O87    C348    1.277   .     S
O88    Cu220   1.935   .     S
O88    C350    1.277   .     S
O89    Cu209   1.935   .     S
O89    C352    1.277   .     S
O90    Cu210   1.935   .     S
O90    C374    1.277   .     S
O91    Cu211   1.935   .     S
O91    C354    1.277   .     S
O92    Cu212   1.935   .     S
O92    C376    1.277   .     S
O93    Cu213   1.935   .     S
O93    C356    1.277   .     S
O94    Cu214   1.935   .     S
O94    C358    1.277   .     S
O95    Cu215   1.935   .     S
O95    C360    1.277   .     S
O96    Cu216   1.935   .     S
O96    C378    1.277   .     S
O97    Cu197   1.935   .     S
O97    C362    1.277   .     S
O98    Cu198   1.935   .     S
O98    C364    1.277   .     S
O99    Cu199   1.935   .     S
O99    C304    1.277   .     S
O100   Cu200   1.935   .     S
O100   C302    1.277   .     S
O101   Cu193   1.935   .     S
O101   C310    1.277   .     S
O102   Cu194   1.935   .     S
O102   C366    1.277   .     S
O103   Cu195   1.935   .     S
O103   C308    1.277   .     S
O104   Cu196   1.935   .     S
O104   C306    1.277   .     S
O105   Cu205   1.935   1_556 S
O105   C368    1.277   .     S
O106   Cu206   1.935   .     S
O106   C320    1.277   .     S
O107   Cu207   1.935   .     S
O107   C318    1.277   .     S
O108   Cu208   1.935   1_556 S
O108   C316    1.277   .     S
O109   Cu201   1.935   1_556 S
O109   C370    1.277   .     S
O110   Cu202   1.935   .     S
O110   C372    1.277   .     S
O111   Cu203   1.935   .     S
O111   C314    1.277   .     S
O112   Cu204   1.935   1_556 S
O112   C312    1.277   .     S
O113   Cu213   1.935   .     S
O113   C374    1.277   .     S
O114   Cu214   1.935   .     S
O114   C352    1.277   .     S
O115   Cu215   1.935   .     S
O115   C376    1.277   .     S
O116   Cu216   1.935   .     S
O116   C354    1.277   .     S
O117   Cu209   1.935   .     S
O117   C358    1.277   .     S
O118   Cu210   1.935   .     S
O118   C356    1.277   .     S
O119   Cu211   1.935   .     S
O119   C378    1.277   .     S
O120   Cu212   1.935   .     S
O120   C360    1.277   .     S
O121   Cu221   1.935   1_655 S
O121   C380    1.277   .     S
O122   Cu222   1.935   1_655 S
O122   C346    1.277   .     S
O123   Cu223   1.935   .     S
O123   C350    1.277   .     S
O124   Cu224   1.935   .     S
O124   C348    1.277   .     S
O125   Cu217   1.935   1_655 S
O125   C382    1.277   .     S
O126   Cu218   1.935   1_655 S
O126   C342    1.277   .     S
O127   Cu219   1.935   .     S
O127   C384    1.277   .     S
O128   Cu220   1.935   .     S
O128   C344    1.277   .     S
O129   Cu229   1.935   .     S
O129   C386    1.277   .     S
O130   Cu230   1.935   .     S
O130   C388    1.277   .     S
O131   Cu231   1.935   .     S
O131   C338    1.277   .     S
O132   Cu232   1.935   .     S
O132   C340    1.277   .     S
O133   Cu225   1.935   .     S
O133   C336    1.277   .     S
O134   Cu226   1.935   .     S
O134   C390    1.277   .     S
O135   Cu227   1.935   .     S
O135   C332    1.277   .     S
O136   Cu228   1.935   .     S
O136   C334    1.277   .     S
O137   Cu237   1.935   1_565 S
O137   C392    1.277   .     S
O138   Cu238   1.935   .     S
O138   C394    1.277   .     S
O139   Cu239   1.935   1_565 S
O139   C322    1.277   .     S
O140   Cu240   1.935   .     S
O140   C324    1.277   .     S
O141   Cu233   1.935   1_565 S
O141   C396    1.277   .     S
O142   Cu234   1.935   .     S
O142   C330    1.277   .     S
O143   Cu235   1.935   1_565 S
O143   C326    1.277   .     S
O144   Cu236   1.935   .     S
O144   C328    1.277   .     S
O145   Cu197   1.935   1_556 S
O145   C398    1.277   .     S
O146   Cu198   1.935   .     S
O146   C400    1.277   .     S
O147   Cu199   1.935   .     S
O147   C244    1.277   .     S
O148   Cu200   1.935   1_556 S
O148   C242    1.277   .     S
O149   Cu193   1.935   1_556 S
O149   C250    1.277   .     S
O150   Cu194   1.935   .     S
O150   C402    1.277   .     S
O151   Cu195   1.935   .     S
O151   C248    1.277   .     S
O152   Cu196   1.935   1_556 S
O152   C246    1.277   .     S
O153   Cu201   1.935   .     S
O153   C404    1.277   .     S
O154   Cu202   1.935   .     S
O154   C406    1.277   .     S
O155   Cu203   1.935   .     S
O155   C260    1.277   .     S
O156   Cu204   1.935   .     S
O156   C258    1.277   .     S
O157   Cu205   1.935   .     S
O157   C408    1.277   .     S
O158   Cu206   1.935   .     S
O158   C256    1.277   .     S
O159   Cu207   1.935   .     S
O159   C254    1.277   .     S
O160   Cu208   1.935   .     S
O160   C252    1.277   .     S
O161   Cu237   1.935   .     S
O161   C410    1.277   .     S
O162   Cu238   1.935   .     S
O162   C412    1.277   .     S
O163   Cu239   1.935   .     S
O163   C292    1.277   .     S
O164   Cu240   1.935   .     S
O164   C294    1.277   .     S
O165   Cu233   1.935   .     S
O165   C414    1.277   .     S
O166   Cu234   1.935   .     S
O166   C300    1.277   .     S
O167   Cu235   1.935   .     S
O167   C296    1.277   .     S
O168   Cu236   1.935   .     S
O168   C298    1.277   .     S
O169   Cu225   1.935   1_565 S
O169   C290    1.277   .     S
O170   Cu226   1.935   .     S
O170   C416    1.277   .     S
O171   Cu227   1.935   1_565 S
O171   C286    1.277   .     S
O172   Cu228   1.935   .     S
O172   C288    1.277   .     S
O173   Cu229   1.935   1_565 S
O173   C418    1.277   .     S
O174   Cu230   1.935   .     S
O174   C420    1.277   .     S
O175   Cu231   1.935   1_565 S
O175   C282    1.277   .     S
O176   Cu232   1.935   .     S
O176   C284    1.277   .     S
O177   Cu217   1.935   .     S
O177   C422    1.277   .     S
O178   Cu218   1.935   .     S
O178   C278    1.277   .     S
O179   Cu219   1.935   .     S
O179   C424    1.277   .     S
O180   Cu220   1.935   .     S
O180   C280    1.277   .     S
O181   Cu221   1.935   .     S
O181   C426    1.277   .     S
O182   Cu222   1.935   .     S
O182   C272    1.277   .     S
O183   Cu223   1.935   .     S
O183   C276    1.277   .     S
O184   Cu224   1.935   .     S
O184   C274    1.277   .     S
O185   Cu213   1.935   1_655 S
O185   C428    1.277   .     S
O186   Cu214   1.935   1_655 S
O186   C262    1.277   .     S
O187   Cu215   1.935   .     S
O187   C430    1.277   .     S
O188   Cu216   1.935   .     S
O188   C264    1.277   .     S
O189   Cu209   1.935   1_655 S
O189   C268    1.277   .     S
O190   Cu210   1.935   1_655 S
O190   C266    1.277   .     S
O191   Cu211   1.935   .     S
O191   C432    1.277   .     S
O192   Cu212   1.935   .     S
O192   C270    1.277   .     S
Cu193  O1      1.935   1_554 S
Cu193  O149    1.935   1_554 S
Cu196  O4      1.935   1_554 S
Cu196  O152    1.935   1_554 S
Cu197  O5      1.935   1_554 S
Cu197  O145    1.935   1_554 S
Cu200  O8      1.935   1_554 S
Cu200  O148    1.935   1_554 S
Cu201  O61     1.935   1_554 S
Cu201  O109    1.935   1_554 S
Cu204  O64     1.935   1_554 S
Cu204  O112    1.935   1_554 S
Cu205  O57     1.935   1_554 S
Cu205  O105    1.935   1_554 S
Cu208  O60     1.935   1_554 S
Cu208  O108    1.935   1_554 S
Cu209  O17     1.935   1_455 S
Cu209  O189    1.935   1_455 S
Cu210  O18     1.935   1_455 S
Cu210  O190    1.935   1_455 S
Cu213  O21     1.935   1_455 S
Cu213  O185    1.935   1_455 S
Cu214  O22     1.935   1_455 S
Cu214  O186    1.935   1_455 S
Cu217  O85     1.935   1_455 S
Cu217  O125    1.935   1_455 S
Cu218  O86     1.935   1_455 S
Cu218  O126    1.935   1_455 S
Cu221  O81     1.935   1_455 S
Cu221  O121    1.935   1_455 S
Cu222  O82     1.935   1_455 S
Cu222  O122    1.935   1_455 S
Cu225  O33     1.935   1_545 S
Cu225  O169    1.935   1_545 S
Cu227  O35     1.935   1_545 S
Cu227  O171    1.935   1_545 S
Cu229  O37     1.935   1_545 S
Cu229  O173    1.935   1_545 S
Cu231  O39     1.935   1_545 S
Cu231  O175    1.935   1_545 S
Cu233  O65     1.935   1_545 S
Cu233  O141    1.935   1_545 S
Cu235  O67     1.935   1_545 S
Cu235  O143    1.935   1_545 S
Cu237  O69     1.935   1_545 S
Cu237  O137    1.935   1_545 S
Cu239  O71     1.935   1_545 S
Cu239  O139    1.935   1_545 S
C241   C242    1.493   .     S
C241   C433    1.407   .     S
C241   C491    1.407   .     S
C243   C244    1.493   .     S
C243   C435    1.407   .     S
C243   C591    1.407   .     S
C245   C246    1.493   .     S
C245   C437    1.407   .     S
C245   C475    1.407   .     S
C247   C248    1.493   .     S
C247   C439    1.407   .     S
C247   C477    1.407   .     S
C249   C250    1.493   .     S
C249   C593    1.407   .     S
C249   C613    1.407   .     S
C251   C252    1.493   .     S
C251   C443    1.407   .     S
C251   C487    1.407   .     S
C253   C254    1.493   .     S
C253   C445    1.407   .     S
C253   C599    1.407   .     S
C255   C256    1.493   .     S
C255   C485    1.407   .     S
C255   C615    1.407   .     S
C257   C258    1.493   .     S
C257   C449    1.407   .     S
C257   C483    1.407   .     S
C259   C260    1.493   .     S
C259   C451    1.407   .     S
C259   C595    1.407   .     S
C261   C262    1.493   .     S
C261   C453    1.407   .     S
C261   C619    1.407   .     S
C263   C264    1.493   .     S
C263   C457    1.407   .     S
C263   C451    1.407   .     S
C265   C266    1.493   .     S
C265   C459    1.407   .     S
C265   C623    1.407   .     S
C267   C268    1.493   .     S
C267   C621    1.407   .     S
C267   C461    1.407   .     S
C269   C270    1.493   .     S
C269   C605    1.407   .     S
C269   C435    1.407   .     S
C271   C272    1.493   .     S
C271   C465    1.407   .     S
C271   C447    1.407   .     S
C273   C274    1.493   .     S
C273   C603    1.407   .     S
C273   C445    1.407   .     S
C275   C276    1.493   .     S
C275   C443    1.407   .     S
C275   C601    1.407   .     S
C277   C278    1.493   .     S
C277   C469    1.407   .     S
C277   C613    1.407   .     S
C279   C280    1.493   .     S
C279   C611    1.407   .     S
C279   C439    1.407   .     S
C281   C282    1.493   .     S
C281   C473    1.407   .     S
C281   C471    1.407   .     S
C283   C284    1.493   .     S
C283   C593    1.407   .     S
C283   C469    1.407   .     S
C285   C286    1.493   .     S
C285   C479    1.407   .     S
C285   C455    1.407   .     S
C287   C288    1.493   .     S
C287   C481    1.407   .     S
C287   C453    1.407   .     S
C289   C290    1.493   .     S
C289   C607    1.407   .     S
C289   C483    1.407   .     S
C291   C292    1.493   .     S
C291   C485    1.407   .     S
C291   C467    1.407   .     S
C293   C294    1.493   .     S
C293   C597    1.407   .     S
C293   C465    1.407   .     S
C295   C296    1.493   .     S
C295   C489    1.407   .     S
C295   C461    1.407   .     S
C297   C298    1.493   .     S
C297   C589    1.407   .     S
C297   C459    1.407   .     S
C299   C300    1.493   .     S
C299   C605    1.407   .     S
C299   C591    1.407   .     S
C301   C302    1.493   .     S
C301   C493    1.407   .     S
C301   C551    1.407   .     S
C303   C304    1.493   .     S
C303   C585    1.407   .     S
C303   C549    1.407   .     S
C305   C306    1.493   .     S
C305   C497    1.407   .     S
C305   C535    1.407   .     S
C307   C308    1.493   .     S
C307   C577    1.407   .     S
C307   C533    1.407   .     S
C309   C310    1.493   .     S
C309   C537    1.407   .     S
C309   C501    1.407   .     S
C311   C312    1.493   .     S
C311   C503    1.407   .     S
C311   C547    1.407   .     S
C313   C314    1.493   .     S
C313   C505    1.407   .     S
C313   C545    1.407   .     S
C315   C316    1.493   .     S
C315   C509    1.407   .     S
C315   C541    1.407   .     S
C317   C318    1.493   .     S
C317   C581    1.407   .     S
C317   C539    1.407   .     S
C319   C320    1.493   .     S
C319   C543    1.407   .     S
C319   C511    1.407   .     S
C321   C322    1.493   .     S
C321   C513    1.407   .     S
C321   C583    1.407   .     S
C323   C324    1.493   .     S
C323   C515    1.407   .     S
C323   C511    1.407   .     S
C325   C326    1.493   .     S
C325   C517    1.407   .     S
C325   C587    1.407   .     S
C327   C328    1.493   .     S
C327   C519    1.407   .     S
C327   C495    1.407   .     S
C329   C330    1.493   .     S
C329   C493    1.407   .     S
C329   C521    1.407   .     S
C331   C332    1.493   .     S
C331   C523    1.407   .     S
C331   C579    1.407   .     S
C333   C334    1.493   .     S
C333   C525    1.407   .     S
C333   C507    1.407   .     S
C335   C336    1.493   .     S
C335   C505    1.407   .     S
C335   C527    1.407   .     S
C337   C338    1.493   .     S
C337   C529    1.407   .     S
C337   C501    1.407   .     S
C339   C340    1.493   .     S
C339   C531    1.407   .     S
C339   C499    1.407   .     S
C341   C342    1.493   .     S
C341   C533    1.407   .     S
C341   C575    1.407   .     S
C343   C344    1.493   .     S
C343   C537    1.407   .     S
C343   C529    1.407   .     S
C345   C346    1.493   .     S
C345   C539    1.407   .     S
C345   C571    1.407   .     S
C347   C348    1.493   .     S
C347   C559    1.407   .     S
C347   C513    1.407   .     S
C349   C350    1.493   .     S
C349   C515    1.407   .     S
C349   C543    1.407   .     S
C351   C352    1.493   .     S
C351   C545    1.407   .     S
C351   C527    1.407   .     S
C353   C354    1.493   .     S
C353   C561    1.407   .     S
C353   C523    1.407   .     S
C355   C356    1.493   .     S
C355   C549    1.407   .     S
C355   C567    1.407   .     S
C357   C358    1.493   .     S
C357   C521    1.407   .     S
C357   C551    1.407   .     S
C359   C360    1.493   .     S
C359   C553    1.407   .     S
C359   C517    1.407   .     S
C361   C362    1.493   .     S
C361   C553    1.407   .     S
C361   C587    1.407   .     S
C363   C364    1.493   .     S
C363   C555    1.407   .     S
C363   C495    1.407   .     S
C365   C366    1.493   .     S
C365   C557    1.407   .     S
C365   C499    1.407   .     S
C367   C368    1.493   .     S
C367   C559    1.407   .     S
C367   C583    1.407   .     S
C369   C370    1.493   .     S
C369   C561    1.407   .     S
C369   C579    1.407   .     S
C371   C372    1.493   .     S
C371   C563    1.407   .     S
C371   C507    1.407   .     S
C373   C374    1.493   .     S
C373   C565    1.407   .     S
C373   C547    1.407   .     S
C375   C376    1.493   .     S
C375   C525    1.407   .     S
C375   C563    1.407   .     S
C377   C378    1.493   .     S
C377   C519    1.407   .     S
C377   C555    1.407   .     S
C379   C380    1.493   .     S
C379   C569    1.407   .     S
C379   C541    1.407   .     S
C381   C382    1.493   .     S
C381   C573    1.407   .     S
C381   C535    1.407   .     S
C383   C384    1.493   .     S
C383   C531    1.407   .     S
C383   C557    1.407   .     S
C385   C386    1.493   .     S
C385   C577    1.407   .     S
C385   C575    1.407   .     S
C387   C388    1.493   .     S
C387   C497    1.407   .     S
C387   C573    1.407   .     S
C389   C390    1.493   .     S
C389   C503    1.407   .     S
C389   C565    1.407   .     S
C391   C392    1.493   .     S
C391   C581    1.407   .     S
C391   C571    1.407   .     S
C393   C394    1.493   .     S
C393   C509    1.407   .     S
C393   C569    1.407   .     S
C395   C396    1.493   .     S
C395   C585    1.407   .     S
C395   C567    1.407   .     S
C397   C398    1.493   .     S
C397   C589    1.407   .     S
C397   C623    1.407   .     S
C399   C400    1.493   .     S
C399   C489    1.407   .     S
C399   C621    1.407   .     S
C401   C402    1.493   .     S
C401   C473    1.407   .     S
C401   C441    1.407   .     S
C403   C404    1.493   .     S
C403   C481    1.407   .     S
C403   C619    1.407   .     S
C405   C406    1.493   .     S
C405   C479    1.407   .     S
C405   C617    1.407   .     S
C407   C408    1.493   .     S
C407   C597    1.407   .     S
C407   C447    1.407   .     S
C409   C410    1.493   .     S
C409   C601    1.407   .     S
C409   C487    1.407   .     S
C411   C412    1.493   .     S
C411   C603    1.407   .     S
C411   C599    1.407   .     S
C413   C414    1.493   .     S
C413   C463    1.407   .     S
C413   C491    1.407   .     S
C415   C416    1.493   .     S
C415   C457    1.407   .     S
C415   C595    1.407   .     S
C417   C418    1.493   .     S
C417   C609    1.407   .     S
C417   C475    1.407   .     S
C419   C420    1.493   .     S
C419   C611    1.407   .     S
C419   C477    1.407   .     S
C421   C422    1.493   .     S
C421   C441    1.407   .     S
C421   C471    1.407   .     S
C423   C424    1.493   .     S
C423   C437    1.407   .     S
C423   C609    1.407   .     S
C425   C426    1.493   .     S
C425   C615    1.407   .     S
C425   C467    1.407   .     S
C427   C428    1.493   .     S
C427   C617    1.407   .     S
C427   C455    1.407   .     S
C429   C430    1.493   .     S
C429   C449    1.407   .     S
C429   C607    1.407   .     S
C431   C432    1.493   .     S
C431   C433    1.407   .     S
C431   C463    1.407   .     S
C433   H434    1.031   .     S
C435   H436    1.031   .     S
C437   H438    1.031   .     S
C439   H440    1.031   .     S
C441   H442    1.031   .     S
C443   H444    1.031   .     S
C445   H446    1.031   .     S
C447   H448    1.031   .     S
C449   H450    1.031   .     S
C451   H452    1.031   .     S
C453   H454    1.031   .     S
C455   H456    1.031   .     S
C457   H458    1.031   .     S
C459   H460    1.031   .     S
C461   H462    1.031   .     S
C463   H464    1.031   .     S
C465   H466    1.031   .     S
C467   H468    1.031   .     S
C469   H470    1.031   .     S
C471   H472    1.031   .     S
C473   H474    1.031   .     S
C475   H476    1.031   .     S
C477   H478    1.031   .     S
C479   H480    1.031   .     S
C481   H482    1.031   .     S
C483   H484    1.031   .     S
C485   H486    1.031   .     S
C487   H488    1.031   .     S
C489   H490    1.031   .     S
C491   H492    1.031   .     S
C493   H494    1.031   .     S
C495   H496    1.031   .     S
C497   H498    1.031   .     S
C499   H500    1.031   .     S
C501   H502    1.031   .     S
C503   H504    1.031   .     S
C505   H506    1.031   .     S
C507   H508    1.031   .     S
C509   H510    1.031   .     S
C511   H512    1.031   .     S
C513   H514    1.031   .     S
C515   H516    1.031   .     S
C517   H518    1.031   .     S
C519   H520    1.031   .     S
C521   H522    1.031   .     S
C523   H524    1.031   .     S
C525   H526    1.031   .     S
C527   H528    1.031   .     S
C529   H530    1.031   .     S
C531   H532    1.031   .     S
C533   H534    1.031   .     S
C535   H536    1.031   .     S
C537   H538    1.031   .     S
C539   H540    1.031   .     S
C541   H542    1.031   .     S
C543   H544    1.031   .     S
C545   H546    1.031   .     S
C547   H548    1.031   .     S
C549   H550    1.031   .     S
C551   H552    1.031   .     S
C553   H554    1.031   .     S
C555   H556    1.031   .     S
C557   H558    1.031   .     S
C559   H560    1.031   .     S
C561   H562    1.031   .     S
C563   H564    1.031   .     S
C565   H566    1.031   .     S
C567   H568    1.031   .     S
C569   H570    1.031   .     S
C571   H572    1.031   .     S
C573   H574    1.031   .     S
C575   H576    1.031   .     S
C577   H578    1.031   .     S
C579   H580    1.031   .     S
C581   H582    1.031   .     S
C583   H584    1.031   .     S
C585   H586    1.031   .     S
C587   H588    1.031   .     S
C589   H590    1.031   .     S
C591   H592    1.031   .     S
C593   H594    1.031   .     S
C595   H596    1.031   .     S
C597   H598    1.031   .     S
C599   H600    1.031   .     S
C601   H602    1.031   .     S
C603   H604    1.031   .     S
C605   H606    1.031   .     S
C607   H608    1.031   .     S
C609   H610    1.031   .     S
C611   H612    1.031   .     S
C613   H614    1.031   .     S
C615   H616    1.031   .     S
C617   H618    1.031   .     S
C619   H620    1.031   .     S
C621   H622    1.031   .     S
C623   H624    1.031   .     S
