data_MOF-801
_audit_creation_date              2025-06-13
_audit_creation_method            'Materials Studio'
_symmetry_space_group_name_H-M    'P1'
_symmetry_Int_Tables_number       1
_symmetry_cell_setting            triclinic
loop_
_symmetry_equiv_pos_as_xyz
  x,y,z
_cell_length_a                    17.8348
_cell_length_b                    17.8348
_cell_length_c                    17.8348
_cell_angle_alpha                 90.0000
_cell_angle_beta                  90.0000
_cell_angle_gamma                 90.0000
loop_
_atom_site_label
_atom_site_type_symbol
_atom_site_fract_x
_atom_site_fract_y
_atom_site_fract_z
_atom_site_U_iso_or_equiv
_atom_site_adp_type
_atom_site_occupancy
Zr1    Zr    0.13785   0.51113   0.01188   0.03850  Uani   1.00
O2     O     0.20900   0.40850   0.00800   0.08567  Uani   1.00
O3     O     0.19040   0.62460   0.02460   0.08333  Uani   1.00
O4     O     0.18960   0.50730   0.12630   0.07867  Uani   1.00
O5     O     0.20880   0.52390   0.90940   0.08700  Uani   1.00
C6     C     0.16040   0.68910   0.02400   0.08700  Uani   1.00
C7     C     0.21420   0.75550   0.02430   0.14033  Uani   1.00
H8     H     0.19550   0.80420   0.02440   0.16900  Uiso   1.00
C9     C     0.19060   0.33980   0.00000   0.08233  Uani   1.00
C10    C     0.25670   0.28650   0.00010   0.12500  Uani   1.00
H11    H     0.30560   0.30460   0.00010   0.15000  Uiso   1.00
O12    O     0.05960   0.56860   0.95040   0.04233  Uani   0.50
Zr13   Zr    0.36215   0.98887   0.01188   0.03850  Uani   1.00
O14    O     0.29100   0.09150   0.00800   0.08567  Uani   1.00
O15    O     0.30960   0.87540   0.02460   0.08333  Uani   1.00
O16    O     0.31040   0.99270   0.12630   0.07867  Uani   1.00
O17    O     0.29120   0.97610   0.90940   0.08700  Uani   1.00
C18    C     0.33960   0.81090   0.02400   0.08700  Uani   1.00
C19    C     0.28580   0.74450   0.02430   0.14033  Uani   1.00
H20    H     0.30450   0.69580   0.02440   0.16900  Uiso   1.00
C21    C     0.30940   0.16020   0.00000   0.08233  Uani   1.00
C22    C     0.24330   0.21350   0.00010   0.12500  Uani   1.00
H23    H     0.19440   0.19540   0.00010   0.15000  Uiso   1.00
O24    O     0.44040   0.93140   0.95040   0.04233  Uani   0.50
Zr25   Zr    0.36215   0.51113   0.48812   0.03850  Uani   1.00
O26    O     0.29100   0.40850   0.49200   0.08567  Uani   1.00
O27    O     0.30960   0.62460   0.47540   0.08333  Uani   1.00
O28    O     0.31040   0.50730   0.37370   0.07867  Uani   1.00
O29    O     0.29120   0.52390   0.59060   0.08700  Uani   1.00
C30    C     0.33960   0.68910   0.47600   0.08700  Uani   1.00
C31    C     0.28580   0.75550   0.47570   0.14033  Uani   1.00
H32    H     0.30450   0.80420   0.47560   0.16900  Uiso   1.00
C33    C     0.30940   0.33980   0.50000   0.08233  Uani   1.00
C34    C     0.24330   0.28650   0.49990   0.12500  Uani   1.00
H35    H     0.19440   0.30460   0.49990   0.15000  Uiso   1.00
O36    O     0.44040   0.56860   0.54960   0.04233  Uani   0.50
Zr37   Zr    0.13785   0.98887   0.48812   0.03850  Uani   1.00
O38    O     0.20900   0.09150   0.49200   0.08567  Uani   1.00
O39    O     0.19040   0.87540   0.47540   0.08333  Uani   1.00
O40    O     0.18960   0.99270   0.37370   0.07867  Uani   1.00
O41    O     0.20880   0.97610   0.59060   0.08700  Uani   1.00
C42    C     0.16040   0.81090   0.47600   0.08700  Uani   1.00
C43    C     0.21420   0.74450   0.47570   0.14033  Uani   1.00
H44    H     0.19550   0.69580   0.47560   0.16900  Uiso   1.00
C45    C     0.19060   0.16020   0.50000   0.08233  Uani   1.00
C46    C     0.25670   0.21350   0.49990   0.12500  Uani   1.00
H47    H     0.30560   0.19540   0.49990   0.15000  Uiso   1.00
O48    O     0.05960   0.93140   0.54960   0.04233  Uani   0.50
Zr49   Zr    0.01188   0.13785   0.51113   0.03850  Uani   1.00
O50    O     0.00800   0.20900   0.40850   0.08567  Uani   1.00
O51    O     0.02460   0.19040   0.62460   0.08333  Uani   1.00
O52    O     0.12630   0.18960   0.50730   0.07867  Uani   1.00
O53    O     0.90940   0.20880   0.52390   0.08700  Uani   1.00
C54    C     0.02400   0.16040   0.68910   0.08700  Uani   1.00
C55    C     0.02430   0.21420   0.75550   0.14033  Uani   1.00
H56    H     0.02440   0.19550   0.80420   0.16900  Uiso   1.00
C57    C     0.00000   0.19060   0.33980   0.08233  Uani   1.00
C58    C     0.00010   0.25670   0.28650   0.12500  Uani   1.00
H59    H     0.00010   0.30560   0.30460   0.15000  Uiso   1.00
O60    O     0.95040   0.05960   0.56860   0.04233  Uani   0.50
Zr61   Zr    0.01188   0.36215   0.98887   0.03850  Uani   1.00
O62    O     0.00800   0.29100   0.09150   0.08567  Uani   1.00
O63    O     0.02460   0.30960   0.87540   0.08333  Uani   1.00
O64    O     0.12630   0.31040   0.99270   0.07867  Uani   1.00
O65    O     0.90940   0.29120   0.97610   0.08700  Uani   1.00
C66    C     0.02400   0.33960   0.81090   0.08700  Uani   1.00
C67    C     0.02430   0.28580   0.74450   0.14033  Uani   1.00
H68    H     0.02440   0.30450   0.69580   0.16900  Uiso   1.00
C69    C     0.00000   0.30940   0.16020   0.08233  Uani   1.00
C70    C     0.00010   0.24330   0.21350   0.12500  Uani   1.00
H71    H     0.00010   0.19440   0.19540   0.15000  Uiso   1.00
O72    O     0.95040   0.44040   0.93140   0.04233  Uani   0.50
Zr73   Zr    0.48812   0.36215   0.51113   0.03850  Uani   1.00
O74    O     0.49200   0.29100   0.40850   0.08567  Uani   1.00
O75    O     0.47540   0.30960   0.62460   0.08333  Uani   1.00
O76    O     0.37370   0.31040   0.50730   0.07867  Uani   1.00
O77    O     0.59060   0.29120   0.52390   0.08700  Uani   1.00
C78    C     0.47600   0.33960   0.68910   0.08700  Uani   1.00
C79    C     0.47570   0.28580   0.75550   0.14033  Uani   1.00
H80    H     0.47560   0.30450   0.80420   0.16900  Uiso   1.00
C81    C     0.50000   0.30940   0.33980   0.08233  Uani   1.00
C82    C     0.49990   0.24330   0.28650   0.12500  Uani   1.00
H83    H     0.49990   0.19440   0.30460   0.15000  Uiso   1.00
O84    O     0.54960   0.44040   0.56860   0.04233  Uani   0.50
Zr85   Zr    0.48812   0.13785   0.98887   0.03850  Uani   1.00
O86    O     0.49200   0.20900   0.09150   0.08567  Uani   1.00
O87    O     0.47540   0.19040   0.87540   0.08333  Uani   1.00
O88    O     0.37370   0.18960   0.99270   0.07867  Uani   1.00
O89    O     0.59060   0.20880   0.97610   0.08700  Uani   1.00
C90    C     0.47600   0.16040   0.81090   0.08700  Uani   1.00
C91    C     0.47570   0.21420   0.74450   0.14033  Uani   1.00
H92    H     0.47560   0.19550   0.69580   0.16900  Uiso   1.00
C93    C     0.50000   0.19060   0.16020   0.08233  Uani   1.00
C94    C     0.49990   0.25670   0.21350   0.12500  Uani   1.00
H95    H     0.49990   0.30560   0.19540   0.15000  Uiso   1.00
O96    O     0.54960   0.05960   0.93140   0.04233  Uani   0.50
Zr97   Zr    0.51113   0.01188   0.13785   0.03850  Uani   1.00
O98    O     0.40850   0.00800   0.20900   0.08567  Uani   1.00
O99    O     0.62460   0.02460   0.19040   0.08333  Uani   1.00
O100   O     0.50730   0.12630   0.18960   0.07867  Uani   1.00
O101   O     0.52390   0.90940   0.20880   0.08700  Uani   1.00
C102   C     0.68910   0.02400   0.16040   0.08700  Uani   1.00
C103   C     0.75550   0.02430   0.21420   0.14033  Uani   1.00
H104   H     0.80420   0.02440   0.19550   0.16900  Uiso   1.00
C105   C     0.33980   0.00000   0.19060   0.08233  Uani   1.00
C106   C     0.28650   0.00010   0.25670   0.12500  Uani   1.00
H107   H     0.30460   0.00010   0.30560   0.15000  Uiso   1.00
O108   O     0.56860   0.95040   0.05960   0.04233  Uani   0.50
Zr109  Zr    0.98887   0.01188   0.36215   0.03850  Uani   1.00
O110   O     0.09150   0.00800   0.29100   0.08567  Uani   1.00
O111   O     0.87540   0.02460   0.30960   0.08333  Uani   1.00
O112   O     0.99270   0.12630   0.31040   0.07867  Uani   1.00
O113   O     0.97610   0.90940   0.29120   0.08700  Uani   1.00
C114   C     0.81090   0.02400   0.33960   0.08700  Uani   1.00
C115   C     0.74450   0.02430   0.28580   0.14033  Uani   1.00
H116   H     0.69580   0.02440   0.30450   0.16900  Uiso   1.00
C117   C     0.16020   0.00000   0.30940   0.08233  Uani   1.00
C118   C     0.21350   0.00010   0.24330   0.12500  Uani   1.00
H119   H     0.19540   0.00010   0.19440   0.15000  Uiso   1.00
O120   O     0.93140   0.95040   0.44040   0.04233  Uani   0.50
Zr121  Zr    0.51113   0.48812   0.36215   0.03850  Uani   1.00
O122   O     0.40850   0.49200   0.29100   0.08567  Uani   1.00
O123   O     0.62460   0.47540   0.30960   0.08333  Uani   1.00
O124   O     0.50730   0.37370   0.31040   0.07867  Uani   1.00
O125   O     0.52390   0.59060   0.29120   0.08700  Uani   1.00
C126   C     0.68910   0.47600   0.33960   0.08700  Uani   1.00
C127   C     0.75550   0.47570   0.28580   0.14033  Uani   1.00
H128   H     0.80420   0.47560   0.30450   0.16900  Uiso   1.00
C129   C     0.33980   0.50000   0.30940   0.08233  Uani   1.00
C130   C     0.28650   0.49990   0.24330   0.12500  Uani   1.00
H131   H     0.30460   0.49990   0.19440   0.15000  Uiso   1.00
O132   O     0.56860   0.54960   0.44040   0.04233  Uani   0.50
Zr133  Zr    0.98887   0.48812   0.13785   0.03850  Uani   1.00
O134   O     0.09150   0.49200   0.20900   0.08567  Uani   1.00
O135   O     0.87540   0.47540   0.19040   0.08333  Uani   1.00
O136   O     0.99270   0.37370   0.18960   0.07867  Uani   1.00
O137   O     0.97610   0.59060   0.20880   0.08700  Uani   1.00
C138   C     0.81090   0.47600   0.16040   0.08700  Uani   1.00
C139   C     0.74450   0.47570   0.21420   0.14033  Uani   1.00
H140   H     0.69580   0.47560   0.19550   0.16900  Uiso   1.00
C141   C     0.16020   0.50000   0.19060   0.08233  Uani   1.00
C142   C     0.21350   0.49990   0.25670   0.12500  Uani   1.00
H143   H     0.19540   0.49990   0.30560   0.15000  Uiso   1.00
O144   O     0.93140   0.54960   0.05960   0.04233  Uani   0.50
Zr145  Zr    0.86215   0.48887   0.98812   0.03850  Uani   1.00
O146   O     0.79100   0.59150   0.99200   0.08567  Uani   1.00
O147   O     0.80960   0.37540   0.97540   0.08333  Uani   1.00
O148   O     0.81040   0.49270   0.87370   0.07867  Uani   1.00
O149   O     0.79120   0.47610   0.09060   0.08700  Uani   1.00
C150   C     0.83960   0.31090   0.97600   0.08700  Uani   1.00
C151   C     0.78580   0.24450   0.97570   0.14033  Uani   1.00
H152   H     0.80450   0.19580   0.97560   0.16900  Uiso   1.00
C153   C     0.80940   0.66020   0.00000   0.08233  Uani   1.00
C154   C     0.74330   0.71350   0.99990   0.12500  Uani   1.00
H155   H     0.69440   0.69540   0.99990   0.15000  Uiso   1.00
O156   O     0.94040   0.43140   0.04960   0.04233  Uani   0.50
Zr157  Zr    0.63785   0.01113   0.98812   0.03850  Uani   1.00
O158   O     0.70900   0.90850   0.99200   0.08567  Uani   1.00
O159   O     0.69040   0.12460   0.97540   0.08333  Uani   1.00
O160   O     0.68960   0.00730   0.87370   0.07867  Uani   1.00
O161   O     0.70880   0.02390   0.09060   0.08700  Uani   1.00
C162   C     0.66040   0.18910   0.97600   0.08700  Uani   1.00
C163   C     0.71420   0.25550   0.97570   0.14033  Uani   1.00
H164   H     0.69550   0.30420   0.97560   0.16900  Uiso   1.00
C165   C     0.69060   0.83980   0.00000   0.08233  Uani   1.00
C166   C     0.75670   0.78650   0.99990   0.12500  Uani   1.00
H167   H     0.80560   0.80460   0.99990   0.15000  Uiso   1.00
O168   O     0.55960   0.06860   0.04960   0.04233  Uani   0.50
Zr169  Zr    0.63785   0.48887   0.51188   0.03850  Uani   1.00
O170   O     0.70900   0.59150   0.50800   0.08567  Uani   1.00
O171   O     0.69040   0.37540   0.52460   0.08333  Uani   1.00
O172   O     0.68960   0.49270   0.62630   0.07867  Uani   1.00
O173   O     0.70880   0.47610   0.40940   0.08700  Uani   1.00
C174   C     0.66040   0.31090   0.52400   0.08700  Uani   1.00
C175   C     0.71420   0.24450   0.52430   0.14033  Uani   1.00
H176   H     0.69550   0.19580   0.52440   0.16900  Uiso   1.00
C177   C     0.69060   0.66020   0.50000   0.08233  Uani   1.00
C178   C     0.75670   0.71350   0.50010   0.12500  Uani   1.00
H179   H     0.80560   0.69540   0.50010   0.15000  Uiso   1.00
O180   O     0.55960   0.43140   0.45040   0.04233  Uani   0.50
Zr181  Zr    0.86215   0.01113   0.51188   0.03850  Uani   1.00
O182   O     0.79100   0.90850   0.50800   0.08567  Uani   1.00
O183   O     0.80960   0.12460   0.52460   0.08333  Uani   1.00
O184   O     0.81040   0.00730   0.62630   0.07867  Uani   1.00
O185   O     0.79120   0.02390   0.40940   0.08700  Uani   1.00
C186   C     0.83960   0.18910   0.52400   0.08700  Uani   1.00
C187   C     0.78580   0.25550   0.52430   0.14033  Uani   1.00
H188   H     0.80450   0.30420   0.52440   0.16900  Uiso   1.00
C189   C     0.80940   0.83980   0.50000   0.08233  Uani   1.00
C190   C     0.74330   0.78650   0.50010   0.12500  Uani   1.00
H191   H     0.69440   0.80460   0.50010   0.15000  Uiso   1.00
O192   O     0.94040   0.06860   0.45040   0.04233  Uani   0.50
Zr193  Zr    0.98812   0.86215   0.48887   0.03850  Uani   1.00
O194   O     0.99200   0.79100   0.59150   0.08567  Uani   1.00
O195   O     0.97540   0.80960   0.37540   0.08333  Uani   1.00
O196   O     0.87370   0.81040   0.49270   0.07867  Uani   1.00
O197   O     0.09060   0.79120   0.47610   0.08700  Uani   1.00
C198   C     0.97600   0.83960   0.31090   0.08700  Uani   1.00
C199   C     0.97570   0.78580   0.24450   0.14033  Uani   1.00
H200   H     0.97560   0.80450   0.19580   0.16900  Uiso   1.00
C201   C     0.00000   0.80940   0.66020   0.08233  Uani   1.00
C202   C     0.99990   0.74330   0.71350   0.12500  Uani   1.00
H203   H     0.99990   0.69440   0.69540   0.15000  Uiso   1.00
O204   O     0.04960   0.94040   0.43140   0.04233  Uani   0.50
Zr205  Zr    0.98812   0.63785   0.01113   0.03850  Uani   1.00
O206   O     0.99200   0.70900   0.90850   0.08567  Uani   1.00
O207   O     0.97540   0.69040   0.12460   0.08333  Uani   1.00
O208   O     0.87370   0.68960   0.00730   0.07867  Uani   1.00
O209   O     0.09060   0.70880   0.02390   0.08700  Uani   1.00
C210   C     0.97600   0.66040   0.18910   0.08700  Uani   1.00
C211   C     0.97570   0.71420   0.25550   0.14033  Uani   1.00
H212   H     0.97560   0.69550   0.30420   0.16900  Uiso   1.00
C213   C     0.00000   0.69060   0.83980   0.08233  Uani   1.00
C214   C     0.99990   0.75670   0.78650   0.12500  Uani   1.00
H215   H     0.99990   0.80560   0.80460   0.15000  Uiso   1.00
O216   O     0.04960   0.55960   0.06860   0.04233  Uani   0.50
Zr217  Zr    0.51188   0.63785   0.48887   0.03850  Uani   1.00
O218   O     0.50800   0.70900   0.59150   0.08567  Uani   1.00
O219   O     0.52460   0.69040   0.37540   0.08333  Uani   1.00
O220   O     0.62630   0.68960   0.49270   0.07867  Uani   1.00
O221   O     0.40940   0.70880   0.47610   0.08700  Uani   1.00
C222   C     0.52400   0.66040   0.31090   0.08700  Uani   1.00
C223   C     0.52430   0.71420   0.24450   0.14033  Uani   1.00
H224   H     0.52440   0.69550   0.19580   0.16900  Uiso   1.00
C225   C     0.50000   0.69060   0.66020   0.08233  Uani   1.00
C226   C     0.50010   0.75670   0.71350   0.12500  Uani   1.00
H227   H     0.50010   0.80560   0.69540   0.15000  Uiso   1.00
O228   O     0.45040   0.55960   0.43140   0.04233  Uani   0.50
Zr229  Zr    0.51188   0.86215   0.01113   0.03850  Uani   1.00
O230   O     0.50800   0.79100   0.90850   0.08567  Uani   1.00
O231   O     0.52460   0.80960   0.12460   0.08333  Uani   1.00
O232   O     0.62630   0.81040   0.00730   0.07867  Uani   1.00
O233   O     0.40940   0.79120   0.02390   0.08700  Uani   1.00
C234   C     0.52400   0.83960   0.18910   0.08700  Uani   1.00
C235   C     0.52430   0.78580   0.25550   0.14033  Uani   1.00
H236   H     0.52440   0.80450   0.30420   0.16900  Uiso   1.00
C237   C     0.50000   0.80940   0.83980   0.08233  Uani   1.00
C238   C     0.50010   0.74330   0.78650   0.12500  Uani   1.00
H239   H     0.50010   0.69440   0.80460   0.15000  Uiso   1.00
O240   O     0.45040   0.94040   0.06860   0.04233  Uani   0.50
Zr241  Zr    0.48887   0.98812   0.86215   0.03850  Uani   1.00
O242   O     0.59150   0.99200   0.79100   0.08567  Uani   1.00
O243   O     0.37540   0.97540   0.80960   0.08333  Uani   1.00
O244   O     0.49270   0.87370   0.81040   0.07867  Uani   1.00
O245   O     0.47610   0.09060   0.79120   0.08700  Uani   1.00
C246   C     0.31090   0.97600   0.83960   0.08700  Uani   1.00
C247   C     0.24450   0.97570   0.78580   0.14033  Uani   1.00
H248   H     0.19580   0.97560   0.80450   0.16900  Uiso   1.00
C249   C     0.66020   0.00000   0.80940   0.08233  Uani   1.00
C250   C     0.71350   0.99990   0.74330   0.12500  Uani   1.00
H251   H     0.69540   0.99990   0.69440   0.15000  Uiso   1.00
O252   O     0.43140   0.04960   0.94040   0.04233  Uani   0.50
Zr253  Zr    0.01113   0.98812   0.63785   0.03850  Uani   1.00
O254   O     0.90850   0.99200   0.70900   0.08567  Uani   1.00
O255   O     0.12460   0.97540   0.69040   0.08333  Uani   1.00
O256   O     0.00730   0.87370   0.68960   0.07867  Uani   1.00
O257   O     0.02390   0.09060   0.70880   0.08700  Uani   1.00
C258   C     0.18910   0.97600   0.66040   0.08700  Uani   1.00
C259   C     0.25550   0.97570   0.71420   0.14033  Uani   1.00
H260   H     0.30420   0.97560   0.69550   0.16900  Uiso   1.00
C261   C     0.83980   0.00000   0.69060   0.08233  Uani   1.00
C262   C     0.78650   0.99990   0.75670   0.12500  Uani   1.00
H263   H     0.80460   0.99990   0.80560   0.15000  Uiso   1.00
O264   O     0.06860   0.04960   0.55960   0.04233  Uani   0.50
Zr265  Zr    0.48887   0.51188   0.63785   0.03850  Uani   1.00
O266   O     0.59150   0.50800   0.70900   0.08567  Uani   1.00
O267   O     0.37540   0.52460   0.69040   0.08333  Uani   1.00
O268   O     0.49270   0.62630   0.68960   0.07867  Uani   1.00
O269   O     0.47610   0.40940   0.70880   0.08700  Uani   1.00
C270   C     0.31090   0.52400   0.66040   0.08700  Uani   1.00
C271   C     0.24450   0.52430   0.71420   0.14033  Uani   1.00
H272   H     0.19580   0.52440   0.69550   0.16900  Uiso   1.00
C273   C     0.66020   0.50000   0.69060   0.08233  Uani   1.00
C274   C     0.71350   0.50010   0.75670   0.12500  Uani   1.00
H275   H     0.69540   0.50010   0.80560   0.15000  Uiso   1.00
O276   O     0.43140   0.45040   0.55960   0.04233  Uani   0.50
Zr277  Zr    0.01113   0.51188   0.86215   0.03850  Uani   1.00
O278   O     0.90850   0.50800   0.79100   0.08567  Uani   1.00
O279   O     0.12460   0.52460   0.80960   0.08333  Uani   1.00
O280   O     0.00730   0.62630   0.81040   0.07867  Uani   1.00
O281   O     0.02390   0.40940   0.79120   0.08700  Uani   1.00
C282   C     0.18910   0.52400   0.83960   0.08700  Uani   1.00
C283   C     0.25550   0.52430   0.78580   0.14033  Uani   1.00
H284   H     0.30420   0.52440   0.80450   0.16900  Uiso   1.00
C285   C     0.83980   0.50000   0.80940   0.08233  Uani   1.00
C286   C     0.78650   0.50010   0.74330   0.12500  Uani   1.00
H287   H     0.80460   0.50010   0.69440   0.15000  Uiso   1.00
O288   O     0.06860   0.45040   0.94040   0.04233  Uani   0.50
O289   O     0.05960   0.44040   0.05960   0.04200  Uani   0.50
O290   O     0.44040   0.05960   0.05960   0.04200  Uani   0.50
O291   O     0.44040   0.44040   0.44040   0.04200  Uani   0.50
O292   O     0.05960   0.05960   0.44040   0.04200  Uani   0.50
O293   O     0.94040   0.55960   0.94040   0.04200  Uani   0.50
O294   O     0.55960   0.94040   0.94040   0.04200  Uani   0.50
O295   O     0.55960   0.55960   0.55960   0.04200  Uani   0.50
O296   O     0.94040   0.94040   0.55960   0.04200  Uani   0.50
loop_
_atom_site_aniso_label
_atom_site_aniso_U_11
_atom_site_aniso_U_22
_atom_site_aniso_U_33
_atom_site_aniso_U_12
_atom_site_aniso_U_13
_atom_site_aniso_U_23
Zr1       0.02860   0.04350   0.04340  -0.00060  -0.00120  -0.00110
O2        0.06500   0.07300   0.11900   0.02900   0.00000   0.00300
O3        0.06300   0.07300   0.11400  -0.02500   0.00100  -0.00700
O4        0.06200   0.10800   0.06600   0.00400  -0.02600  -0.00500
O5        0.06800   0.11300   0.08000  -0.00200   0.03200   0.00100
C6        0.06000   0.06300   0.13800  -0.01600   0.00500  -0.00800
C7        0.07500   0.10000   0.24600  -0.03700   0.01000  -0.01000
C9        0.05400   0.06700   0.12600   0.01900   0.00800   0.01000
C10       0.09400   0.07700   0.20400   0.03300   0.01700  -0.00500
O12       0.04400   0.04000   0.04300  -0.01100   0.01000   0.01100
Zr13      0.02860   0.04350   0.04340  -0.00060   0.00120   0.00110
O14       0.06500   0.07300   0.11900   0.02900   0.00000  -0.00300
O15       0.06300   0.07300   0.11400  -0.02500  -0.00100   0.00700
O16       0.06200   0.10800   0.06600   0.00400   0.02600   0.00500
O17       0.06800   0.11300   0.08000  -0.00200  -0.03200  -0.00100
C18       0.06000   0.06300   0.13800  -0.01600  -0.00500   0.00800
C19       0.07500   0.10000   0.24600  -0.03700  -0.01000   0.01000
C21       0.05400   0.06700   0.12600   0.01900  -0.00800  -0.01000
C22       0.09400   0.07700   0.20400   0.03300  -0.01700   0.00500
O24       0.04400   0.04000   0.04300  -0.01100  -0.01000  -0.01100
Zr25      0.02860   0.04350   0.04340   0.00060  -0.00120   0.00110
O26       0.06500   0.07300   0.11900  -0.02900   0.00000  -0.00300
O27       0.06300   0.07300   0.11400   0.02500   0.00100   0.00700
O28       0.06200   0.10800   0.06600  -0.00400  -0.02600   0.00500
O29       0.06800   0.11300   0.08000   0.00200   0.03200  -0.00100
C30       0.06000   0.06300   0.13800   0.01600   0.00500   0.00800
C31       0.07500   0.10000   0.24600   0.03700   0.01000   0.01000
C33       0.05400   0.06700   0.12600  -0.01900   0.00800  -0.01000
C34       0.09400   0.07700   0.20400  -0.03300   0.01700   0.00500
O36       0.04400   0.04000   0.04300   0.01100   0.01000  -0.01100
Zr37      0.02860   0.04350   0.04340   0.00060   0.00120  -0.00110
O38       0.06500   0.07300   0.11900  -0.02900   0.00000   0.00300
O39       0.06300   0.07300   0.11400   0.02500  -0.00100  -0.00700
O40       0.06200   0.10800   0.06600  -0.00400   0.02600  -0.00500
O41       0.06800   0.11300   0.08000   0.00200  -0.03200   0.00100
C42       0.06000   0.06300   0.13800   0.01600  -0.00500  -0.00800
C43       0.07500   0.10000   0.24600   0.03700  -0.01000  -0.01000
C45       0.05400   0.06700   0.12600  -0.01900  -0.00800   0.01000
C46       0.09400   0.07700   0.20400  -0.03300  -0.01700  -0.00500
O48       0.04400   0.04000   0.04300   0.01100  -0.01000   0.01100
Zr49      0.04340   0.02860   0.04350  -0.00120  -0.00110  -0.00060
O50       0.11900   0.06500   0.07300   0.00000   0.00300   0.02900
O51       0.11400   0.06300   0.07300   0.00100  -0.00700  -0.02500
O52       0.06600   0.06200   0.10800  -0.02600  -0.00500   0.00400
O53       0.08000   0.06800   0.11300   0.03200   0.00100  -0.00200
C54       0.13800   0.06000   0.06300   0.00500  -0.00800  -0.01600
C55       0.24600   0.07500   0.10000   0.01000  -0.01000  -0.03700
C57       0.12600   0.05400   0.06700   0.00800   0.01000   0.01900
C58       0.20400   0.09400   0.07700   0.01700  -0.00500   0.03300
O60       0.04300   0.04400   0.04000   0.01000   0.01100  -0.01100
Zr61      0.04340   0.02860   0.04350   0.00120   0.00110  -0.00060
O62       0.11900   0.06500   0.07300   0.00000  -0.00300   0.02900
O63       0.11400   0.06300   0.07300  -0.00100   0.00700  -0.02500
O64       0.06600   0.06200   0.10800   0.02600   0.00500   0.00400
O65       0.08000   0.06800   0.11300  -0.03200  -0.00100  -0.00200
C66       0.13800   0.06000   0.06300  -0.00500   0.00800  -0.01600
C67       0.24600   0.07500   0.10000  -0.01000   0.01000  -0.03700
C69       0.12600   0.05400   0.06700  -0.00800  -0.01000   0.01900
C70       0.20400   0.09400   0.07700  -0.01700   0.00500   0.03300
O72       0.04300   0.04400   0.04000  -0.01000  -0.01100  -0.01100
Zr73      0.04340   0.02860   0.04350  -0.00120   0.00110   0.00060
O74       0.11900   0.06500   0.07300   0.00000  -0.00300  -0.02900
O75       0.11400   0.06300   0.07300   0.00100   0.00700   0.02500
O76       0.06600   0.06200   0.10800  -0.02600   0.00500  -0.00400
O77       0.08000   0.06800   0.11300   0.03200  -0.00100   0.00200
C78       0.13800   0.06000   0.06300   0.00500   0.00800   0.01600
C79       0.24600   0.07500   0.10000   0.01000   0.01000   0.03700
C81       0.12600   0.05400   0.06700   0.00800  -0.01000  -0.01900
C82       0.20400   0.09400   0.07700   0.01700   0.00500  -0.03300
O84       0.04300   0.04400   0.04000   0.01000  -0.01100   0.01100
Zr85      0.04340   0.02860   0.04350   0.00120  -0.00110   0.00060
O86       0.11900   0.06500   0.07300   0.00000   0.00300  -0.02900
O87       0.11400   0.06300   0.07300  -0.00100  -0.00700   0.02500
O88       0.06600   0.06200   0.10800   0.02600  -0.00500  -0.00400
O89       0.08000   0.06800   0.11300  -0.03200   0.00100   0.00200
C90       0.13800   0.06000   0.06300  -0.00500  -0.00800   0.01600
C91       0.24600   0.07500   0.10000  -0.01000  -0.01000   0.03700
C93       0.12600   0.05400   0.06700  -0.00800   0.01000  -0.01900
C94       0.20400   0.09400   0.07700  -0.01700  -0.00500  -0.03300
O96       0.04300   0.04400   0.04000  -0.01000   0.01100   0.01100
Zr97      0.04350   0.04340   0.02860  -0.00110  -0.00060  -0.00120
O98       0.07300   0.11900   0.06500   0.00300   0.02900   0.00000
O99       0.07300   0.11400   0.06300  -0.00700  -0.02500   0.00100
O100      0.10800   0.06600   0.06200  -0.00500   0.00400  -0.02600
O101      0.11300   0.08000   0.06800   0.00100  -0.00200   0.03200
C102      0.06300   0.13800   0.06000  -0.00800  -0.01600   0.00500
C103      0.10000   0.24600   0.07500  -0.01000  -0.03700   0.01000
C105      0.06700   0.12600   0.05400   0.01000   0.01900   0.00800
C106      0.07700   0.20400   0.09400  -0.00500   0.03300   0.01700
O108      0.04000   0.04300   0.04400   0.01100  -0.01100   0.01000
Zr109     0.04350   0.04340   0.02860   0.00110  -0.00060   0.00120
O110      0.07300   0.11900   0.06500  -0.00300   0.02900   0.00000
O111      0.07300   0.11400   0.06300   0.00700  -0.02500  -0.00100
O112      0.10800   0.06600   0.06200   0.00500   0.00400   0.02600
O113      0.11300   0.08000   0.06800  -0.00100  -0.00200  -0.03200
C114      0.06300   0.13800   0.06000   0.00800  -0.01600  -0.00500
C115      0.10000   0.24600   0.07500   0.01000  -0.03700  -0.01000
C117      0.06700   0.12600   0.05400  -0.01000   0.01900  -0.00800
C118      0.07700   0.20400   0.09400   0.00500   0.03300  -0.01700
O120      0.04000   0.04300   0.04400  -0.01100  -0.01100  -0.01000
Zr121     0.04350   0.04340   0.02860   0.00110   0.00060  -0.00120
O122      0.07300   0.11900   0.06500  -0.00300  -0.02900   0.00000
O123      0.07300   0.11400   0.06300   0.00700   0.02500   0.00100
O124      0.10800   0.06600   0.06200   0.00500  -0.00400  -0.02600
O125      0.11300   0.08000   0.06800  -0.00100   0.00200   0.03200
C126      0.06300   0.13800   0.06000   0.00800   0.01600   0.00500
C127      0.10000   0.24600   0.07500   0.01000   0.03700   0.01000
C129      0.06700   0.12600   0.05400  -0.01000  -0.01900   0.00800
C130      0.07700   0.20400   0.09400   0.00500  -0.03300   0.01700
O132      0.04000   0.04300   0.04400  -0.01100   0.01100   0.01000
Zr133     0.04350   0.04340   0.02860  -0.00110   0.00060   0.00120
O134      0.07300   0.11900   0.06500   0.00300  -0.02900   0.00000
O135      0.07300   0.11400   0.06300  -0.00700   0.02500  -0.00100
O136      0.10800   0.06600   0.06200  -0.00500  -0.00400   0.02600
O137      0.11300   0.08000   0.06800   0.00100   0.00200  -0.03200
C138      0.06300   0.13800   0.06000  -0.00800   0.01600  -0.00500
C139      0.10000   0.24600   0.07500  -0.01000   0.03700  -0.01000
C141      0.06700   0.12600   0.05400   0.01000  -0.01900  -0.00800
C142      0.07700   0.20400   0.09400  -0.00500  -0.03300  -0.01700
O144      0.04000   0.04300   0.04400   0.01100   0.01100  -0.01000
Zr145     0.02860   0.04350   0.04340  -0.00060  -0.00120  -0.00110
O146      0.06500   0.07300   0.11900   0.02900   0.00000   0.00300
O147      0.06300   0.07300   0.11400  -0.02500   0.00100  -0.00700
O148      0.06200   0.10800   0.06600   0.00400  -0.02600  -0.00500
O149      0.06800   0.11300   0.08000  -0.00200   0.03200   0.00100
C150      0.06000   0.06300   0.13800  -0.01600   0.00500  -0.00800
C151      0.07500   0.10000   0.24600  -0.03700   0.01000  -0.01000
C153      0.05400   0.06700   0.12600   0.01900   0.00800   0.01000
C154      0.09400   0.07700   0.20400   0.03300   0.01700  -0.00500
O156      0.04400   0.04000   0.04300  -0.01100   0.01000   0.01100
Zr157     0.02860   0.04350   0.04340  -0.00060   0.00120   0.00110
O158      0.06500   0.07300   0.11900   0.02900   0.00000  -0.00300
O159      0.06300   0.07300   0.11400  -0.02500  -0.00100   0.00700
O160      0.06200   0.10800   0.06600   0.00400   0.02600   0.00500
O161      0.06800   0.11300   0.08000  -0.00200  -0.03200  -0.00100
C162      0.06000   0.06300   0.13800  -0.01600  -0.00500   0.00800
C163      0.07500   0.10000   0.24600  -0.03700  -0.01000   0.01000
C165      0.05400   0.06700   0.12600   0.01900  -0.00800  -0.01000
C166      0.09400   0.07700   0.20400   0.03300  -0.01700   0.00500
O168      0.04400   0.04000   0.04300  -0.01100  -0.01000  -0.01100
Zr169     0.02860   0.04350   0.04340   0.00060  -0.00120   0.00110
O170      0.06500   0.07300   0.11900  -0.02900   0.00000  -0.00300
O171      0.06300   0.07300   0.11400   0.02500   0.00100   0.00700
O172      0.06200   0.10800   0.06600  -0.00400  -0.02600   0.00500
O173      0.06800   0.11300   0.08000   0.00200   0.03200  -0.00100
C174      0.06000   0.06300   0.13800   0.01600   0.00500   0.00800
C175      0.07500   0.10000   0.24600   0.03700   0.01000   0.01000
C177      0.05400   0.06700   0.12600  -0.01900   0.00800  -0.01000
C178      0.09400   0.07700   0.20400  -0.03300   0.01700   0.00500
O180      0.04400   0.04000   0.04300   0.01100   0.01000  -0.01100
Zr181     0.02860   0.04350   0.04340   0.00060   0.00120  -0.00110
O182      0.06500   0.07300   0.11900  -0.02900   0.00000   0.00300
O183      0.06300   0.07300   0.11400   0.02500  -0.00100  -0.00700
O184      0.06200   0.10800   0.06600  -0.00400   0.02600  -0.00500
O185      0.06800   0.11300   0.08000   0.00200  -0.03200   0.00100
C186      0.06000   0.06300   0.13800   0.01600  -0.00500  -0.00800
C187      0.07500   0.10000   0.24600   0.03700  -0.01000  -0.01000
C189      0.05400   0.06700   0.12600  -0.01900  -0.00800   0.01000
C190      0.09400   0.07700   0.20400  -0.03300  -0.01700  -0.00500
O192      0.04400   0.04000   0.04300   0.01100  -0.01000   0.01100
Zr193     0.04340   0.02860   0.04350  -0.00120  -0.00110  -0.00060
O194      0.11900   0.06500   0.07300   0.00000   0.00300   0.02900
O195      0.11400   0.06300   0.07300   0.00100  -0.00700  -0.02500
O196      0.06600   0.06200   0.10800  -0.02600  -0.00500   0.00400
O197      0.08000   0.06800   0.11300   0.03200   0.00100  -0.00200
C198      0.13800   0.06000   0.06300   0.00500  -0.00800  -0.01600
C199      0.24600   0.07500   0.10000   0.01000  -0.01000  -0.03700
C201      0.12600   0.05400   0.06700   0.00800   0.01000   0.01900
C202      0.20400   0.09400   0.07700   0.01700  -0.00500   0.03300
O204      0.04300   0.04400   0.04000   0.01000   0.01100  -0.01100
Zr205     0.04340   0.02860   0.04350   0.00120   0.00110  -0.00060
O206      0.11900   0.06500   0.07300   0.00000  -0.00300   0.02900
O207      0.11400   0.06300   0.07300  -0.00100   0.00700  -0.02500
O208      0.06600   0.06200   0.10800   0.02600   0.00500   0.00400
O209      0.08000   0.06800   0.11300  -0.03200  -0.00100  -0.00200
C210      0.13800   0.06000   0.06300  -0.00500   0.00800  -0.01600
C211      0.24600   0.07500   0.10000  -0.01000   0.01000  -0.03700
C213      0.12600   0.05400   0.06700  -0.00800  -0.01000   0.01900
C214      0.20400   0.09400   0.07700  -0.01700   0.00500   0.03300
O216      0.04300   0.04400   0.04000  -0.01000  -0.01100  -0.01100
Zr217     0.04340   0.02860   0.04350  -0.00120   0.00110   0.00060
O218      0.11900   0.06500   0.07300   0.00000  -0.00300  -0.02900
O219      0.11400   0.06300   0.07300   0.00100   0.00700   0.02500
O220      0.06600   0.06200   0.10800  -0.02600   0.00500  -0.00400
O221      0.08000   0.06800   0.11300   0.03200  -0.00100   0.00200
C222      0.13800   0.06000   0.06300   0.00500   0.00800   0.01600
C223      0.24600   0.07500   0.10000   0.01000   0.01000   0.03700
C225      0.12600   0.05400   0.06700   0.00800  -0.01000  -0.01900
C226      0.20400   0.09400   0.07700   0.01700   0.00500  -0.03300
O228      0.04300   0.04400   0.04000   0.01000  -0.01100   0.01100
Zr229     0.04340   0.02860   0.04350   0.00120  -0.00110   0.00060
O230      0.11900   0.06500   0.07300   0.00000   0.00300  -0.02900
O231      0.11400   0.06300   0.07300  -0.00100  -0.00700   0.02500
O232      0.06600   0.06200   0.10800   0.02600  -0.00500  -0.00400
O233      0.08000   0.06800   0.11300  -0.03200   0.00100   0.00200
C234      0.13800   0.06000   0.06300  -0.00500  -0.00800   0.01600
C235      0.24600   0.07500   0.10000  -0.01000  -0.01000   0.03700
C237      0.12600   0.05400   0.06700  -0.00800   0.01000  -0.01900
C238      0.20400   0.09400   0.07700  -0.01700  -0.00500  -0.03300
O240      0.04300   0.04400   0.04000  -0.01000   0.01100   0.01100
Zr241     0.04350   0.04340   0.02860  -0.00110  -0.00060  -0.00120
O242      0.07300   0.11900   0.06500   0.00300   0.02900   0.00000
O243      0.07300   0.11400   0.06300  -0.00700  -0.02500   0.00100
O244      0.10800   0.06600   0.06200  -0.00500   0.00400  -0.02600
O245      0.11300   0.08000   0.06800   0.00100  -0.00200   0.03200
C246      0.06300   0.13800   0.06000  -0.00800  -0.01600   0.00500
C247      0.10000   0.24600   0.07500  -0.01000  -0.03700   0.01000
C249      0.06700   0.12600   0.05400   0.01000   0.01900   0.00800
C250      0.07700   0.20400   0.09400  -0.00500   0.03300   0.01700
O252      0.04000   0.04300   0.04400   0.01100  -0.01100   0.01000
Zr253     0.04350   0.04340   0.02860   0.00110  -0.00060   0.00120
O254      0.07300   0.11900   0.06500  -0.00300   0.02900   0.00000
O255      0.07300   0.11400   0.06300   0.00700  -0.02500  -0.00100
O256      0.10800   0.06600   0.06200   0.00500   0.00400   0.02600
O257      0.11300   0.08000   0.06800  -0.00100  -0.00200  -0.03200
C258      0.06300   0.13800   0.06000   0.00800  -0.01600  -0.00500
C259      0.10000   0.24600   0.07500   0.01000  -0.03700  -0.01000
C261      0.06700   0.12600   0.05400  -0.01000   0.01900  -0.00800
C262      0.07700   0.20400   0.09400   0.00500   0.03300  -0.01700
O264      0.04000   0.04300   0.04400  -0.01100  -0.01100  -0.01000
Zr265     0.04350   0.04340   0.02860   0.00110   0.00060  -0.00120
O266      0.07300   0.11900   0.06500  -0.00300  -0.02900   0.00000
O267      0.07300   0.11400   0.06300   0.00700   0.02500   0.00100
O268      0.10800   0.06600   0.06200   0.00500  -0.00400  -0.02600
O269      0.11300   0.08000   0.06800  -0.00100   0.00200   0.03200
C270      0.06300   0.13800   0.06000   0.00800   0.01600   0.00500
C271      0.10000   0.24600   0.07500   0.01000   0.03700   0.01000
C273      0.06700   0.12600   0.05400  -0.01000  -0.01900   0.00800
C274      0.07700   0.20400   0.09400   0.00500  -0.03300   0.01700
O276      0.04000   0.04300   0.04400  -0.01100   0.01100   0.01000
Zr277     0.04350   0.04340   0.02860  -0.00110   0.00060   0.00120
O278      0.07300   0.11900   0.06500   0.00300  -0.02900   0.00000
O279      0.07300   0.11400   0.06300  -0.00700   0.02500  -0.00100
O280      0.10800   0.06600   0.06200  -0.00500  -0.00400   0.02600
O281      0.11300   0.08000   0.06800   0.00100   0.00200  -0.03200
C282      0.06300   0.13800   0.06000  -0.00800   0.01600  -0.00500
C283      0.10000   0.24600   0.07500  -0.01000   0.03700  -0.01000
C285      0.06700   0.12600   0.05400   0.01000  -0.01900  -0.00800
C286      0.07700   0.20400   0.09400  -0.00500  -0.03300  -0.01700
O288      0.04000   0.04300   0.04400   0.01100   0.01100  -0.01000
O289      0.04200   0.04200   0.04200   0.01100  -0.01100   0.01100
O290      0.04200   0.04200   0.04200   0.01100   0.01100  -0.01100
O291      0.04200   0.04200   0.04200  -0.01100  -0.01100  -0.01100
O292      0.04200   0.04200   0.04200  -0.01100   0.01100   0.01100
O293      0.04200   0.04200   0.04200   0.01100  -0.01100   0.01100
O294      0.04200   0.04200   0.04200   0.01100   0.01100  -0.01100
O295      0.04200   0.04200   0.04200  -0.01100  -0.01100  -0.01100
O296      0.04200   0.04200   0.04200  -0.01100   0.01100   0.01100
loop_
_geom_bond_atom_site_label_1
_geom_bond_atom_site_label_2
_geom_bond_distance
_geom_bond_site_symmetry_2
_ccdc_geom_bond_type
Zr1    O2      2.228   .     S
Zr1    O3      2.242   .     S
Zr1    O4      2.241   .     S
Zr1    O5      2.235   1_554 S
Zr1    O289    2.065   .     S
Zr1    O12     2.050   1_554 S
Zr1    O288    2.079   1_554 S
Zr1    O216    2.061   .     S
O2     C9      1.276   .     S
O3     C6      1.269   .     S
O4     C141    1.268   .     S
O5     Zr1     2.235   1_556 S
O5     C282    1.294   .     S
C6     C7      1.524   .     S
C6     O209    1.294   .     S
C7     C19     1.292   .     S
C9     C10     1.514   .     S
C9     O64     1.268   1_554 S
C10    C22     1.324   .     S
O12    Zr1     2.050   1_556 S
O12    Zr205   2.079   1_456 S
O12    Zr277   2.061   .     S
Zr13   O14     2.228   1_565 S
Zr13   O15     2.242   .     S
Zr13   O16     2.241   .     S
Zr13   O17     2.235   1_554 S
Zr13   O290    2.065   1_565 S
Zr13   O24     2.050   1_554 S
Zr13   O252    2.079   1_564 S
Zr13   O240    2.061   .     S
O14    Zr13    2.228   1_545 S
O14    C21     1.276   .     S
O15    C18     1.269   .     S
O16    C105    1.268   1_565 S
O17    Zr13    2.235   1_556 S
O17    C246    1.294   .     S
C18    C19     1.524   .     S
C18    O233    1.294   .     S
C21    C22     1.514   .     S
C21    O88     1.268   1_554 S
O24    Zr13    2.050   1_556 S
O24    Zr229   2.079   1_556 S
O24    Zr241   2.061   .     S
Zr25   O26     2.228   .     S
Zr25   O27     2.242   .     S
Zr25   O28     2.241   .     S
Zr25   O29     2.235   .     S
Zr25   O291    2.065   .     S
Zr25   O36     2.050   .     S
Zr25   O276    2.079   .     S
Zr25   O228    2.061   .     S
O26    C33     1.276   .     S
O27    C30     1.269   .     S
O28    C129    1.268   .     S
O29    C270    1.294   .     S
C30    C31     1.524   .     S
C30    O221    1.294   .     S
C31    C43     1.292   .     S
C33    C34     1.514   .     S
C33    O76     1.268   .     S
C34    C46     1.324   .     S
O36    Zr217   2.079   .     S
O36    Zr265   2.061   .     S
Zr37   O38     2.228   1_565 S
Zr37   O39     2.242   .     S
Zr37   O40     2.241   .     S
Zr37   O41     2.235   .     S
Zr37   O292    2.065   1_565 S
Zr37   O48     2.050   .     S
Zr37   O264    2.079   1_565 S
Zr37   O204    2.061   .     S
O38    Zr37    2.228   1_545 S
O38    C45     1.276   .     S
O39    C42     1.269   .     S
O40    C117    1.268   1_565 S
O41    C258    1.294   .     S
C42    C43     1.524   .     S
C42    O197    1.294   .     S
C45    C46     1.514   .     S
C45    O52     1.268   .     S
O48    Zr193   2.079   1_455 S
O48    Zr253   2.061   .     S
Zr49   O50     2.228   .     S
Zr49   O51     2.242   .     S
Zr49   O52     2.241   .     S
Zr49   O53     2.235   1_455 S
Zr49   O292    2.065   .     S
Zr49   O60     2.050   1_455 S
Zr49   O192    2.079   1_455 S
Zr49   O264    2.061   .     S
O50    C57     1.276   .     S
O51    C54     1.269   .     S
O53    Zr49    2.235   1_655 S
O53    C186    1.294   .     S
C54    C55     1.524   .     S
C54    O257    1.294   .     S
C55    C67     1.292   .     S
C57    C58     1.514   .     S
C57    O112    1.268   1_455 S
C58    C70     1.324   .     S
O60    Zr49    2.050   1_655 S
O60    Zr253   2.079   1_645 S
O60    Zr181   2.061   .     S
Zr61   O62     2.228   1_556 S
Zr61   O63     2.242   .     S
Zr61   O64     2.241   .     S
Zr61   O65     2.235   1_455 S
Zr61   O289    2.065   1_556 S
Zr61   O72     2.050   1_455 S
Zr61   O156    2.079   1_456 S
Zr61   O288    2.061   .     S
O62    Zr61    2.228   1_554 S
O62    C69     1.276   .     S
O63    C66     1.269   .     S
O64    C9      1.268   1_556 S
O65    Zr61    2.235   1_655 S
O65    C150    1.294   .     S
C66    C67     1.524   .     S
C66    O281    1.294   .     S
C69    C70     1.514   .     S
C69    O136    1.268   1_455 S
O72    Zr61    2.050   1_655 S
O72    Zr277   2.079   1_655 S
O72    Zr145   2.061   .     S
Zr73   O74     2.228   .     S
Zr73   O75     2.242   .     S
Zr73   O76     2.241   .     S
Zr73   O77     2.235   .     S
Zr73   O291    2.065   .     S
Zr73   O84     2.050   .     S
Zr73   O180    2.079   .     S
Zr73   O276    2.061   .     S
O74    C81     1.276   .     S
O75    C78     1.269   .     S
O77    C174    1.294   .     S
C78    C79     1.524   .     S
C78    O269    1.294   .     S
C79    C91     1.292   .     S
C81    C82     1.514   .     S
C81    O124    1.268   .     S
C82    C94     1.324   .     S
O84    Zr265   2.079   .     S
O84    Zr169   2.061   .     S
Zr85   O86     2.228   1_556 S
Zr85   O87     2.242   .     S
Zr85   O88     2.241   .     S
Zr85   O89     2.235   .     S
Zr85   O290    2.065   1_556 S
Zr85   O96     2.050   .     S
Zr85   O168    2.079   1_556 S
Zr85   O252    2.061   .     S
O86    Zr85    2.228   1_554 S
O86    C93     1.276   .     S
O87    C90     1.269   .     S
O88    C21     1.268   1_556 S
O89    C162    1.294   .     S
C90    C91     1.524   .     S
C90    O245    1.294   .     S
C93    C94     1.514   .     S
C93    O100    1.268   .     S
O96    Zr241   2.079   1_545 S
O96    Zr157   2.061   .     S
Zr97   O98     2.228   .     S
Zr97   O99     2.242   .     S
Zr97   O100    2.241   .     S
Zr97   O101    2.235   1_545 S
Zr97   O290    2.065   .     S
Zr97   O108    2.050   1_545 S
Zr97   O240    2.079   1_545 S
Zr97   O168    2.061   .     S
O98    C105    1.276   .     S
O99    C102    1.269   .     S
O101   Zr97    2.235   1_565 S
O101   C234    1.294   .     S
C102   C103    1.524   .     S
C102   O161    1.294   .     S
C103   C115    1.292   .     S
C105   C106    1.514   .     S
C105   O16     1.268   1_545 S
C106   C118    1.324   .     S
O108   Zr97    2.050   1_565 S
O108   Zr157   2.079   1_564 S
O108   Zr229   2.061   .     S
Zr109  O110    2.228   1_655 S
Zr109  O111    2.242   .     S
Zr109  O112    2.241   .     S
Zr109  O113    2.235   1_545 S
Zr109  O292    2.065   1_655 S
Zr109  O120    2.050   1_545 S
Zr109  O204    2.079   1_645 S
Zr109  O192    2.061   .     S
O110   Zr109   2.228   1_455 S
O110   C117    1.276   .     S
O111   C114    1.269   .     S
O112   C57     1.268   1_655 S
O113   Zr109   2.235   1_565 S
O113   C198    1.294   .     S
C114   C115    1.524   .     S
C114   O185    1.294   .     S
C117   C118    1.514   .     S
C117   O40     1.268   1_545 S
O120   Zr109   2.050   1_565 S
O120   Zr181   2.079   1_565 S
O120   Zr193   2.061   .     S
Zr121  O122    2.228   .     S
Zr121  O123    2.242   .     S
Zr121  O124    2.241   .     S
Zr121  O125    2.235   .     S
Zr121  O291    2.065   .     S
Zr121  O132    2.050   .     S
Zr121  O228    2.079   .     S
Zr121  O180    2.061   .     S
O122   C129    1.276   .     S
O123   C126    1.269   .     S
O125   C222    1.294   .     S
C126   C127    1.524   .     S
C126   O173    1.294   .     S
C127   C139    1.292   .     S
C129   C130    1.514   .     S
C130   C142    1.324   .     S
O132   Zr169   2.079   .     S
O132   Zr217   2.061   .     S
Zr133  O134    2.228   1_655 S
Zr133  O135    2.242   .     S
Zr133  O136    2.241   .     S
Zr133  O137    2.235   .     S
Zr133  O289    2.065   1_655 S
Zr133  O144    2.050   .     S
Zr133  O216    2.079   1_655 S
Zr133  O156    2.061   .     S
O134   Zr133   2.228   1_455 S
O134   C141    1.276   .     S
O135   C138    1.269   .     S
O136   C69     1.268   1_655 S
O137   C210    1.294   .     S
C138   C139    1.524   .     S
C138   O149    1.294   .     S
C141   C142    1.514   .     S
O144   Zr145   2.079   1_554 S
O144   Zr205   2.061   .     S
Zr145  O146    2.228   .     S
Zr145  O147    2.242   .     S
Zr145  O148    2.241   .     S
Zr145  O149    2.235   1_556 S
Zr145  O293    2.065   .     S
Zr145  O156    2.050   1_556 S
Zr145  O144    2.079   1_556 S
O146   C153    1.276   1_556 S
O147   C150    1.269   .     S
O148   C285    1.268   .     S
O149   Zr145   2.235   1_554 S
C150   C151    1.524   .     S
C151   C163    1.292   .     S
C153   O146    1.276   1_554 S
C153   C154    1.514   1_554 S
C153   O208    1.268   .     S
C154   C153    1.514   1_556 S
C154   C166    1.324   .     S
O156   Zr145   2.050   1_554 S
O156   Zr61    2.079   1_654 S
Zr157  O158    2.228   1_545 S
Zr157  O159    2.242   .     S
Zr157  O160    2.241   .     S
Zr157  O161    2.235   1_556 S
Zr157  O294    2.065   1_545 S
Zr157  O168    2.050   1_556 S
Zr157  O108    2.079   1_546 S
O158   Zr157   2.228   1_565 S
O158   C165    1.276   1_556 S
O159   C162    1.269   .     S
O160   C249    1.268   .     S
O161   Zr157   2.235   1_554 S
C162   C163    1.524   .     S
C165   O158    1.276   1_554 S
C165   C166    1.514   1_554 S
C165   O232    1.268   .     S
C166   C165    1.514   1_556 S
O168   Zr157   2.050   1_554 S
O168   Zr85    2.079   1_554 S
Zr169  O170    2.228   .     S
Zr169  O171    2.242   .     S
Zr169  O172    2.241   .     S
Zr169  O173    2.235   .     S
Zr169  O295    2.065   .     S
Zr169  O180    2.050   .     S
O170   C177    1.276   .     S
O171   C174    1.269   .     S
O172   C273    1.268   .     S
C174   C175    1.524   .     S
C175   C187    1.292   .     S
C177   C178    1.514   .     S
C177   O220    1.268   .     S
C178   C190    1.324   .     S
Zr181  O182    2.228   1_545 S
Zr181  O183    2.242   .     S
Zr181  O184    2.241   .     S
Zr181  O185    2.235   .     S
Zr181  O296    2.065   1_545 S
Zr181  O192    2.050   .     S
Zr181  O120    2.079   1_545 S
O182   Zr181   2.228   1_565 S
O182   C189    1.276   .     S
O183   C186    1.269   .     S
O184   C261    1.268   .     S
C186   C187    1.524   .     S
C189   C190    1.514   .     S
C189   O196    1.268   .     S
O192   Zr49    2.079   1_655 S
Zr193  O194    2.228   .     S
Zr193  O195    2.242   .     S
Zr193  O196    2.241   .     S
Zr193  O197    2.235   1_655 S
Zr193  O296    2.065   .     S
Zr193  O204    2.050   1_655 S
Zr193  O48     2.079   1_655 S
O194   C201    1.276   1_655 S
O195   C198    1.269   .     S
O197   Zr193   2.235   1_455 S
C198   C199    1.524   .     S
C199   C211    1.292   .     S
C201   O194    1.276   1_455 S
C201   C202    1.514   1_455 S
C201   O256    1.268   .     S
C202   C201    1.514   1_655 S
C202   C214    1.324   .     S
O204   Zr193   2.050   1_455 S
O204   Zr109   2.079   1_465 S
Zr205  O206    2.228   1_554 S
Zr205  O207    2.242   .     S
Zr205  O208    2.241   .     S
Zr205  O209    2.235   1_655 S
Zr205  O293    2.065   1_554 S
Zr205  O216    2.050   1_655 S
Zr205  O12     2.079   1_654 S
O206   Zr205   2.228   1_556 S
O206   C213    1.276   1_655 S
O207   C210    1.269   .     S
O209   Zr205   2.235   1_455 S
C210   C211    1.524   .     S
C213   O206    1.276   1_455 S
C213   C214    1.514   1_455 S
C213   O280    1.268   .     S
C214   C213    1.514   1_655 S
O216   Zr205   2.050   1_455 S
O216   Zr133   2.079   1_455 S
Zr217  O218    2.228   .     S
Zr217  O219    2.242   .     S
Zr217  O220    2.241   .     S
Zr217  O221    2.235   .     S
Zr217  O295    2.065   .     S
Zr217  O228    2.050   .     S
O218   C225    1.276   .     S
O219   C222    1.269   .     S
C222   C223    1.524   .     S
C223   C235    1.292   .     S
C225   C226    1.514   .     S
C225   O268    1.268   .     S
C226   C238    1.324   .     S
Zr229  O230    2.228   1_554 S
Zr229  O231    2.242   .     S
Zr229  O232    2.241   .     S
Zr229  O233    2.235   .     S
Zr229  O294    2.065   1_554 S
Zr229  O240    2.050   .     S
Zr229  O24     2.079   1_554 S
O230   Zr229   2.228   1_556 S
O230   C237    1.276   .     S
O231   C234    1.269   .     S
C234   C235    1.524   .     S
C237   C238    1.514   .     S
C237   O244    1.268   .     S
O240   Zr97    2.079   1_565 S
Zr241  O242    2.228   .     S
Zr241  O243    2.242   .     S
Zr241  O244    2.241   .     S
Zr241  O245    2.235   1_565 S
Zr241  O294    2.065   .     S
Zr241  O252    2.050   1_565 S
Zr241  O96     2.079   1_565 S
O242   C249    1.276   1_565 S
O243   C246    1.269   .     S
O245   Zr241   2.235   1_545 S
C246   C247    1.524   .     S
C247   C259    1.292   .     S
C249   O242    1.276   1_545 S
C249   C250    1.514   1_545 S
C250   C249    1.514   1_565 S
C250   C262    1.324   .     S
O252   Zr241   2.050   1_545 S
O252   Zr13    2.079   1_546 S
Zr253  O254    2.228   1_455 S
Zr253  O255    2.242   .     S
Zr253  O256    2.241   .     S
Zr253  O257    2.235   1_565 S
Zr253  O296    2.065   1_455 S
Zr253  O264    2.050   1_565 S
Zr253  O60     2.079   1_465 S
O254   Zr253   2.228   1_655 S
O254   C261    1.276   1_565 S
O255   C258    1.269   .     S
O257   Zr253   2.235   1_545 S
C258   C259    1.524   .     S
C261   O254    1.276   1_545 S
C261   C262    1.514   1_545 S
C262   C261    1.514   1_565 S
O264   Zr253   2.050   1_545 S
O264   Zr37    2.079   1_545 S
Zr265  O266    2.228   .     S
Zr265  O267    2.242   .     S
Zr265  O268    2.241   .     S
Zr265  O269    2.235   .     S
Zr265  O295    2.065   .     S
Zr265  O276    2.050   .     S
O266   C273    1.276   .     S
O267   C270    1.269   .     S
C270   C271    1.524   .     S
C271   C283    1.292   .     S
C273   C274    1.514   .     S
C274   C286    1.324   .     S
Zr277  O278    2.228   1_455 S
Zr277  O279    2.242   .     S
Zr277  O280    2.241   .     S
Zr277  O281    2.235   .     S
Zr277  O293    2.065   1_455 S
Zr277  O288    2.050   .     S
Zr277  O72     2.079   1_455 S
O278   Zr277   2.228   1_655 S
O278   C285    1.276   .     S
O279   C282    1.269   .     S
C282   C283    1.524   .     S
C285   C286    1.514   .     S
O288   Zr1     2.079   1_556 S
O289   Zr61    2.065   1_554 S
O289   Zr133   2.065   1_455 S
O290   Zr13    2.065   1_545 S
O290   Zr85    2.065   1_554 S
O292   Zr37    2.065   1_545 S
O292   Zr109   2.065   1_455 S
O293   Zr205   2.065   1_556 S
O293   Zr277   2.065   1_655 S
O294   Zr157   2.065   1_565 S
O294   Zr229   2.065   1_556 S
O296   Zr181   2.065   1_565 S
O296   Zr253   2.065   1_655 S
