data_UIO-66
_audit_creation_date              2025-06-13
_audit_creation_method            'Materials Studio'
_symmetry_space_group_name_H-M    'P1'
_symmetry_Int_Tables_number       1
_symmetry_cell_setting            triclinic
loop_
_symmetry_equiv_pos_as_xyz
  x,y,z
_cell_length_a                    20.7680
_cell_length_b                    20.7680
_cell_length_c                    20.7680
_cell_angle_alpha                 90.0000
_cell_angle_beta                  90.0000
_cell_angle_gamma                 90.0000
loop_
_atom_site_label
_atom_site_type_symbol
_atom_site_fract_x
_atom_site_fract_y
_atom_site_fract_z
_atom_site_U_iso_or_equiv
_atom_site_adp_type
_atom_site_occupancy
Zr1    Zr    0.11969   0.00000   0.00000   0.00583  Uiso   1.00
Zr2    Zr    0.11969   0.50000   0.50000   0.00583  Uiso   1.00
Zr3    Zr    0.61969   0.00000   0.50000   0.00583  Uiso   1.00
Zr4    Zr    0.61969   0.50000   0.00000   0.00583  Uiso   1.00
Zr5    Zr    0.88031   0.00000   0.00000   0.00583  Uiso   1.00
Zr6    Zr    0.88031   0.50000   0.50000   0.00583  Uiso   1.00
Zr7    Zr    0.38031   0.00000   0.50000   0.00583  Uiso   1.00
Zr8    Zr    0.38031   0.50000   0.00000   0.00583  Uiso   1.00
Zr9    Zr    0.00000   0.11969   0.00000   0.00583  Uiso   1.00
Zr10   Zr    0.00000   0.61969   0.50000   0.00583  Uiso   1.00
Zr11   Zr    0.50000   0.11969   0.50000   0.00583  Uiso   1.00
Zr12   Zr    0.50000   0.61969   0.00000   0.00583  Uiso   1.00
Zr13   Zr    0.00000   0.88031   0.00000   0.00583  Uiso   1.00
Zr14   Zr    0.00000   0.38031   0.50000   0.00583  Uiso   1.00
Zr15   Zr    0.50000   0.88031   0.50000   0.00583  Uiso   1.00
Zr16   Zr    0.50000   0.38031   0.00000   0.00583  Uiso   1.00
Zr17   Zr    0.00000   0.00000   0.11969   0.00583  Uiso   1.00
Zr18   Zr    0.00000   0.50000   0.61969   0.00583  Uiso   1.00
Zr19   Zr    0.50000   0.00000   0.61969   0.00583  Uiso   1.00
Zr20   Zr    0.50000   0.50000   0.11969   0.00583  Uiso   1.00
Zr21   Zr    0.00000   0.00000   0.88031   0.00583  Uiso   1.00
Zr22   Zr    0.00000   0.50000   0.38031   0.00583  Uiso   1.00
Zr23   Zr    0.50000   0.00000   0.38031   0.00583  Uiso   1.00
Zr24   Zr    0.50000   0.50000   0.88031   0.00583  Uiso   1.00
O25    O     0.17270   0.09660   0.00000   0.01203  Uiso   0.87
C26    C     0.26859   0.18200   0.00000   0.01203  Uiso   0.87
H27    H     0.28146   0.13962   0.00000   0.01203  Uiso   0.87
O28    O     0.17270   0.59660   0.50000   0.01203  Uiso   0.87
C29    C     0.26859   0.68200   0.50000   0.01203  Uiso   0.87
H30    H     0.28146   0.63962   0.50000   0.01203  Uiso   0.87
O31    O     0.67270   0.09660   0.50000   0.01203  Uiso   0.87
C32    C     0.76859   0.18200   0.50000   0.01203  Uiso   0.87
H33    H     0.78146   0.13962   0.50000   0.01203  Uiso   0.87
O34    O     0.67270   0.59660   0.00000   0.01203  Uiso   0.87
C35    C     0.76859   0.68200   0.00000   0.01203  Uiso   0.87
H36    H     0.78146   0.63962   0.00000   0.01203  Uiso   0.87
O37    O     0.82730   0.90340   0.00000   0.01203  Uiso   0.87
C38    C     0.73141   0.81800   0.00000   0.01203  Uiso   0.87
H39    H     0.71854   0.86038   0.00000   0.01203  Uiso   0.87
O40    O     0.82730   0.40340   0.50000   0.01203  Uiso   0.87
C41    C     0.73141   0.31800   0.50000   0.01203  Uiso   0.87
H42    H     0.71854   0.36038   0.50000   0.01203  Uiso   0.87
O43    O     0.32730   0.90340   0.50000   0.01203  Uiso   0.87
C44    C     0.23141   0.81800   0.50000   0.01203  Uiso   0.87
H45    H     0.21854   0.86038   0.50000   0.01203  Uiso   0.87
O46    O     0.32730   0.40340   0.00000   0.01203  Uiso   0.87
C47    C     0.23141   0.31800   0.00000   0.01203  Uiso   0.87
H48    H     0.21854   0.36038   0.00000   0.01203  Uiso   0.87
O49    O     0.82730   0.09660   0.00000   0.01203  Uiso   0.87
C50    C     0.73141   0.18200   0.00000   0.01203  Uiso   0.87
H51    H     0.71854   0.13962   0.00000   0.01203  Uiso   0.87
O52    O     0.82730   0.59660   0.50000   0.01203  Uiso   0.87
C53    C     0.73141   0.68200   0.50000   0.01203  Uiso   0.87
H54    H     0.71854   0.63962   0.50000   0.01203  Uiso   0.87
O55    O     0.32730   0.09660   0.50000   0.01203  Uiso   0.87
C56    C     0.23141   0.18200   0.50000   0.01203  Uiso   0.87
H57    H     0.21854   0.13962   0.50000   0.01203  Uiso   0.87
O58    O     0.32730   0.59660   0.00000   0.01203  Uiso   0.87
C59    C     0.23141   0.68200   0.00000   0.01203  Uiso   0.87
H60    H     0.21854   0.63962   0.00000   0.01203  Uiso   0.87
O61    O     0.17270   0.90340   0.00000   0.01203  Uiso   0.87
C62    C     0.26859   0.81800   0.00000   0.01203  Uiso   0.87
H63    H     0.28146   0.86038   0.00000   0.01203  Uiso   0.87
O64    O     0.17270   0.40340   0.50000   0.01203  Uiso   0.87
C65    C     0.26859   0.31800   0.50000   0.01203  Uiso   0.87
H66    H     0.28146   0.36038   0.50000   0.01203  Uiso   0.87
O67    O     0.67270   0.90340   0.50000   0.01203  Uiso   0.87
C68    C     0.76859   0.81800   0.50000   0.01203  Uiso   0.87
H69    H     0.78146   0.86038   0.50000   0.01203  Uiso   0.87
O70    O     0.67270   0.40340   0.00000   0.01203  Uiso   0.87
C71    C     0.76859   0.31800   0.00000   0.01203  Uiso   0.87
H72    H     0.78146   0.36038   0.00000   0.01203  Uiso   0.87
O73    O     0.00000   0.17270   0.09660   0.01203  Uiso   0.87
C74    C     0.00000   0.26859   0.18200   0.01203  Uiso   0.87
H75    H     0.00000   0.28146   0.13962   0.01203  Uiso   0.87
O76    O     0.00000   0.67270   0.59660   0.01203  Uiso   0.87
C77    C     0.00000   0.76859   0.68200   0.01203  Uiso   0.87
H78    H     0.00000   0.78146   0.63962   0.01203  Uiso   0.87
O79    O     0.50000   0.17270   0.59660   0.01203  Uiso   0.87
C80    C     0.50000   0.26859   0.68200   0.01203  Uiso   0.87
H81    H     0.50000   0.28146   0.63962   0.01203  Uiso   0.87
O82    O     0.50000   0.67270   0.09660   0.01203  Uiso   0.87
C83    C     0.50000   0.76859   0.18200   0.01203  Uiso   0.87
H84    H     0.50000   0.78146   0.13962   0.01203  Uiso   0.87
O85    O     0.00000   0.82730   0.90340   0.01203  Uiso   0.87
C86    C     0.00000   0.73141   0.81800   0.01203  Uiso   0.87
H87    H     0.00000   0.71854   0.86038   0.01203  Uiso   0.87
O88    O     0.00000   0.32730   0.40340   0.01203  Uiso   0.87
C89    C     0.00000   0.23141   0.31800   0.01203  Uiso   0.87
H90    H     0.00000   0.21854   0.36038   0.01203  Uiso   0.87
O91    O     0.50000   0.82730   0.40340   0.01203  Uiso   0.87
C92    C     0.50000   0.73141   0.31800   0.01203  Uiso   0.87
H93    H     0.50000   0.71854   0.36038   0.01203  Uiso   0.87
O94    O     0.50000   0.32730   0.90340   0.01203  Uiso   0.87
C95    C     0.50000   0.23141   0.81800   0.01203  Uiso   0.87
H96    H     0.50000   0.21854   0.86038   0.01203  Uiso   0.87
O97    O     0.00000   0.82730   0.09660   0.01203  Uiso   0.87
C98    C     0.00000   0.73141   0.18200   0.01203  Uiso   0.87
H99    H     0.00000   0.71854   0.13962   0.01203  Uiso   0.87
O100   O     0.00000   0.32730   0.59660   0.01203  Uiso   0.87
C101   C     0.00000   0.23141   0.68200   0.01203  Uiso   0.87
H102   H     0.00000   0.21854   0.63962   0.01203  Uiso   0.87
O103   O     0.50000   0.82730   0.59660   0.01203  Uiso   0.87
C104   C     0.50000   0.73141   0.68200   0.01203  Uiso   0.87
H105   H     0.50000   0.71854   0.63962   0.01203  Uiso   0.87
O106   O     0.50000   0.32730   0.09660   0.01203  Uiso   0.87
C107   C     0.50000   0.23141   0.18200   0.01203  Uiso   0.87
H108   H     0.50000   0.21854   0.13962   0.01203  Uiso   0.87
O109   O     0.00000   0.17270   0.90340   0.01203  Uiso   0.87
C110   C     0.00000   0.26859   0.81800   0.01203  Uiso   0.87
H111   H     0.00000   0.28146   0.86038   0.01203  Uiso   0.87
O112   O     0.00000   0.67270   0.40340   0.01203  Uiso   0.87
C113   C     0.00000   0.76859   0.31800   0.01203  Uiso   0.87
H114   H     0.00000   0.78146   0.36038   0.01203  Uiso   0.87
O115   O     0.50000   0.17270   0.40340   0.01203  Uiso   0.87
C116   C     0.50000   0.26859   0.31800   0.01203  Uiso   0.87
H117   H     0.50000   0.28146   0.36038   0.01203  Uiso   0.87
O118   O     0.50000   0.67270   0.90340   0.01203  Uiso   0.87
C119   C     0.50000   0.76859   0.81800   0.01203  Uiso   0.87
H120   H     0.50000   0.78146   0.86038   0.01203  Uiso   0.87
O121   O     0.09660   0.00000   0.17270   0.01203  Uiso   0.87
C122   C     0.18200   0.00000   0.26859   0.01203  Uiso   0.87
H123   H     0.13962   0.00000   0.28146   0.01203  Uiso   0.87
O124   O     0.09660   0.50000   0.67270   0.01203  Uiso   0.87
C125   C     0.18200   0.50000   0.76859   0.01203  Uiso   0.87
H126   H     0.13962   0.50000   0.78146   0.01203  Uiso   0.87
O127   O     0.59660   0.00000   0.67270   0.01203  Uiso   0.87
C128   C     0.68200   0.00000   0.76859   0.01203  Uiso   0.87
H129   H     0.63962   0.00000   0.78146   0.01203  Uiso   0.87
O130   O     0.59660   0.50000   0.17270   0.01203  Uiso   0.87
C131   C     0.68200   0.50000   0.26859   0.01203  Uiso   0.87
H132   H     0.63962   0.50000   0.28146   0.01203  Uiso   0.87
O133   O     0.90340   0.00000   0.82730   0.01203  Uiso   0.87
C134   C     0.81800   0.00000   0.73141   0.01203  Uiso   0.87
H135   H     0.86038   0.00000   0.71854   0.01203  Uiso   0.87
O136   O     0.90340   0.50000   0.32730   0.01203  Uiso   0.87
C137   C     0.81800   0.50000   0.23141   0.01203  Uiso   0.87
H138   H     0.86038   0.50000   0.21854   0.01203  Uiso   0.87
O139   O     0.40340   0.00000   0.32730   0.01203  Uiso   0.87
C140   C     0.31800   0.00000   0.23141   0.01203  Uiso   0.87
H141   H     0.36038   0.00000   0.21854   0.01203  Uiso   0.87
O142   O     0.40340   0.50000   0.82730   0.01203  Uiso   0.87
C143   C     0.31800   0.50000   0.73141   0.01203  Uiso   0.87
H144   H     0.36038   0.50000   0.71854   0.01203  Uiso   0.87
O145   O     0.09660   0.00000   0.82730   0.01203  Uiso   0.87
C146   C     0.18200   0.00000   0.73141   0.01203  Uiso   0.87
H147   H     0.13962   0.00000   0.71854   0.01203  Uiso   0.87
O148   O     0.09660   0.50000   0.32730   0.01203  Uiso   0.87
C149   C     0.18200   0.50000   0.23141   0.01203  Uiso   0.87
H150   H     0.13962   0.50000   0.21854   0.01203  Uiso   0.87
O151   O     0.59660   0.00000   0.32730   0.01203  Uiso   0.87
C152   C     0.68200   0.00000   0.23141   0.01203  Uiso   0.87
H153   H     0.63962   0.00000   0.21854   0.01203  Uiso   0.87
O154   O     0.59660   0.50000   0.82730   0.01203  Uiso   0.87
C155   C     0.68200   0.50000   0.73141   0.01203  Uiso   0.87
H156   H     0.63962   0.50000   0.71854   0.01203  Uiso   0.87
O157   O     0.90340   0.00000   0.17270   0.01203  Uiso   0.87
C158   C     0.81800   0.00000   0.26859   0.01203  Uiso   0.87
H159   H     0.86038   0.00000   0.28146   0.01203  Uiso   0.87
O160   O     0.90340   0.50000   0.67270   0.01203  Uiso   0.87
C161   C     0.81800   0.50000   0.76859   0.01203  Uiso   0.87
H162   H     0.86038   0.50000   0.78146   0.01203  Uiso   0.87
O163   O     0.40340   0.00000   0.67270   0.01203  Uiso   0.87
C164   C     0.31800   0.00000   0.76859   0.01203  Uiso   0.87
H165   H     0.36038   0.00000   0.78146   0.01203  Uiso   0.87
O166   O     0.40340   0.50000   0.17270   0.01203  Uiso   0.87
C167   C     0.31800   0.50000   0.26859   0.01203  Uiso   0.87
H168   H     0.36038   0.50000   0.28146   0.01203  Uiso   0.87
O169   O     0.09660   0.17270   0.00000   0.01203  Uiso   0.87
C170   C     0.18200   0.26859   0.00000   0.01203  Uiso   0.87
H171   H     0.13962   0.28146   0.00000   0.01203  Uiso   0.87
O172   O     0.09660   0.67270   0.50000   0.01203  Uiso   0.87
C173   C     0.18200   0.76859   0.50000   0.01203  Uiso   0.87
H174   H     0.13962   0.78146   0.50000   0.01203  Uiso   0.87
O175   O     0.59660   0.17270   0.50000   0.01203  Uiso   0.87
C176   C     0.68200   0.26859   0.50000   0.01203  Uiso   0.87
H177   H     0.63962   0.28146   0.50000   0.01203  Uiso   0.87
O178   O     0.59660   0.67270   0.00000   0.01203  Uiso   0.87
C179   C     0.68200   0.76859   0.00000   0.01203  Uiso   0.87
H180   H     0.63962   0.78146   0.00000   0.01203  Uiso   0.87
O181   O     0.90340   0.82730   0.00000   0.01203  Uiso   0.87
C182   C     0.81800   0.73141   0.00000   0.01203  Uiso   0.87
H183   H     0.86038   0.71854   0.00000   0.01203  Uiso   0.87
O184   O     0.90340   0.32730   0.50000   0.01203  Uiso   0.87
C185   C     0.81800   0.23141   0.50000   0.01203  Uiso   0.87
H186   H     0.86038   0.21854   0.50000   0.01203  Uiso   0.87
O187   O     0.40340   0.82730   0.50000   0.01203  Uiso   0.87
C188   C     0.31800   0.73141   0.50000   0.01203  Uiso   0.87
H189   H     0.36038   0.71854   0.50000   0.01203  Uiso   0.87
O190   O     0.40340   0.32730   0.00000   0.01203  Uiso   0.87
C191   C     0.31800   0.23141   0.00000   0.01203  Uiso   0.87
H192   H     0.36038   0.21854   0.00000   0.01203  Uiso   0.87
O193   O     0.09660   0.82730   0.00000   0.01203  Uiso   0.87
C194   C     0.18200   0.73141   0.00000   0.01203  Uiso   0.87
H195   H     0.13962   0.71854   0.00000   0.01203  Uiso   0.87
O196   O     0.09660   0.32730   0.50000   0.01203  Uiso   0.87
C197   C     0.18200   0.23141   0.50000   0.01203  Uiso   0.87
H198   H     0.13962   0.21854   0.50000   0.01203  Uiso   0.87
O199   O     0.59660   0.82730   0.50000   0.01203  Uiso   0.87
C200   C     0.68200   0.73141   0.50000   0.01203  Uiso   0.87
H201   H     0.63962   0.71854   0.50000   0.01203  Uiso   0.87
O202   O     0.59660   0.32730   0.00000   0.01203  Uiso   0.87
C203   C     0.68200   0.23141   0.00000   0.01203  Uiso   0.87
H204   H     0.63962   0.21854   0.00000   0.01203  Uiso   0.87
O205   O     0.90340   0.17270   0.00000   0.01203  Uiso   0.87
C206   C     0.81800   0.26859   0.00000   0.01203  Uiso   0.87
H207   H     0.86038   0.28146   0.00000   0.01203  Uiso   0.87
O208   O     0.90340   0.67270   0.50000   0.01203  Uiso   0.87
C209   C     0.81800   0.76859   0.50000   0.01203  Uiso   0.87
H210   H     0.86038   0.78146   0.50000   0.01203  Uiso   0.87
O211   O     0.40340   0.17270   0.50000   0.01203  Uiso   0.87
C212   C     0.31800   0.26859   0.50000   0.01203  Uiso   0.87
H213   H     0.36038   0.28146   0.50000   0.01203  Uiso   0.87
O214   O     0.40340   0.67270   0.00000   0.01203  Uiso   0.87
C215   C     0.31800   0.76859   0.00000   0.01203  Uiso   0.87
H216   H     0.36038   0.78146   0.00000   0.01203  Uiso   0.87
O217   O     0.17270   0.00000   0.90340   0.01203  Uiso   0.87
C218   C     0.26859   0.00000   0.81800   0.01203  Uiso   0.87
H219   H     0.28146   0.00000   0.86038   0.01203  Uiso   0.87
O220   O     0.17270   0.50000   0.40340   0.01203  Uiso   0.87
C221   C     0.26859   0.50000   0.31800   0.01203  Uiso   0.87
H222   H     0.28146   0.50000   0.36038   0.01203  Uiso   0.87
O223   O     0.67270   0.00000   0.40340   0.01203  Uiso   0.87
C224   C     0.76859   0.00000   0.31800   0.01203  Uiso   0.87
H225   H     0.78146   0.00000   0.36038   0.01203  Uiso   0.87
O226   O     0.67270   0.50000   0.90340   0.01203  Uiso   0.87
C227   C     0.76859   0.50000   0.81800   0.01203  Uiso   0.87
H228   H     0.78146   0.50000   0.86038   0.01203  Uiso   0.87
O229   O     0.82730   0.00000   0.09660   0.01203  Uiso   0.87
C230   C     0.73141   0.00000   0.18200   0.01203  Uiso   0.87
H231   H     0.71854   0.00000   0.13962   0.01203  Uiso   0.87
O232   O     0.82730   0.50000   0.59660   0.01203  Uiso   0.87
C233   C     0.73141   0.50000   0.68200   0.01203  Uiso   0.87
H234   H     0.71854   0.50000   0.63962   0.01203  Uiso   0.87
O235   O     0.32730   0.00000   0.59660   0.01203  Uiso   0.87
C236   C     0.23141   0.00000   0.68200   0.01203  Uiso   0.87
H237   H     0.21854   0.00000   0.63962   0.01203  Uiso   0.87
O238   O     0.32730   0.50000   0.09660   0.01203  Uiso   0.87
C239   C     0.23141   0.50000   0.18200   0.01203  Uiso   0.87
H240   H     0.21854   0.50000   0.13962   0.01203  Uiso   0.87
O241   O     0.82730   0.00000   0.90340   0.01203  Uiso   0.87
C242   C     0.73141   0.00000   0.81800   0.01203  Uiso   0.87
H243   H     0.71854   0.00000   0.86038   0.01203  Uiso   0.87
O244   O     0.82730   0.50000   0.40340   0.01203  Uiso   0.87
C245   C     0.73141   0.50000   0.31800   0.01203  Uiso   0.87
H246   H     0.71854   0.50000   0.36038   0.01203  Uiso   0.87
O247   O     0.32730   0.00000   0.40340   0.01203  Uiso   0.87
C248   C     0.23141   0.00000   0.31800   0.01203  Uiso   0.87
H249   H     0.21854   0.00000   0.36038   0.01203  Uiso   0.87
O250   O     0.32730   0.50000   0.90340   0.01203  Uiso   0.87
C251   C     0.23141   0.50000   0.81800   0.01203  Uiso   0.87
H252   H     0.21854   0.50000   0.86038   0.01203  Uiso   0.87
O253   O     0.17270   0.00000   0.09660   0.01203  Uiso   0.87
C254   C     0.26859   0.00000   0.18200   0.01203  Uiso   0.87
H255   H     0.28146   0.00000   0.13962   0.01203  Uiso   0.87
O256   O     0.17270   0.50000   0.59660   0.01203  Uiso   0.87
C257   C     0.26859   0.50000   0.68200   0.01203  Uiso   0.87
H258   H     0.28146   0.50000   0.63962   0.01203  Uiso   0.87
O259   O     0.67270   0.00000   0.59660   0.01203  Uiso   0.87
C260   C     0.76859   0.00000   0.68200   0.01203  Uiso   0.87
H261   H     0.78146   0.00000   0.63962   0.01203  Uiso   0.87
O262   O     0.67270   0.50000   0.09660   0.01203  Uiso   0.87
C263   C     0.76859   0.50000   0.18200   0.01203  Uiso   0.87
H264   H     0.78146   0.50000   0.13962   0.01203  Uiso   0.87
O265   O     0.00000   0.09660   0.82730   0.01203  Uiso   0.87
C266   C     0.00000   0.18200   0.73141   0.01203  Uiso   0.87
H267   H     0.00000   0.13962   0.71854   0.01203  Uiso   0.87
O268   O     0.00000   0.59660   0.32730   0.01203  Uiso   0.87
C269   C     0.00000   0.68200   0.23141   0.01203  Uiso   0.87
H270   H     0.00000   0.63962   0.21854   0.01203  Uiso   0.87
O271   O     0.50000   0.09660   0.32730   0.01203  Uiso   0.87
C272   C     0.50000   0.18200   0.23141   0.01203  Uiso   0.87
H273   H     0.50000   0.13962   0.21854   0.01203  Uiso   0.87
O274   O     0.50000   0.59660   0.82730   0.01203  Uiso   0.87
C275   C     0.50000   0.68200   0.73141   0.01203  Uiso   0.87
H276   H     0.50000   0.63962   0.71854   0.01203  Uiso   0.87
O277   O     0.00000   0.90340   0.17270   0.01203  Uiso   0.87
C278   C     0.00000   0.81800   0.26859   0.01203  Uiso   0.87
H279   H     0.00000   0.86038   0.28146   0.01203  Uiso   0.87
O280   O     0.00000   0.40340   0.67270   0.01203  Uiso   0.87
C281   C     0.00000   0.31800   0.76859   0.01203  Uiso   0.87
H282   H     0.00000   0.36038   0.78146   0.01203  Uiso   0.87
O283   O     0.50000   0.90340   0.67270   0.01203  Uiso   0.87
C284   C     0.50000   0.81800   0.76859   0.01203  Uiso   0.87
H285   H     0.50000   0.86038   0.78146   0.01203  Uiso   0.87
O286   O     0.50000   0.40340   0.17270   0.01203  Uiso   0.87
C287   C     0.50000   0.31800   0.26859   0.01203  Uiso   0.87
H288   H     0.50000   0.36038   0.28146   0.01203  Uiso   0.87
O289   O     0.00000   0.09660   0.17270   0.01203  Uiso   0.87
C290   C     0.00000   0.18200   0.26859   0.01203  Uiso   0.87
H291   H     0.00000   0.13962   0.28146   0.01203  Uiso   0.87
O292   O     0.00000   0.59660   0.67270   0.01203  Uiso   0.87
C293   C     0.00000   0.68200   0.76859   0.01203  Uiso   0.87
H294   H     0.00000   0.63962   0.78146   0.01203  Uiso   0.87
O295   O     0.50000   0.09660   0.67270   0.01203  Uiso   0.87
C296   C     0.50000   0.18200   0.76859   0.01203  Uiso   0.87
H297   H     0.50000   0.13962   0.78146   0.01203  Uiso   0.87
O298   O     0.50000   0.59660   0.17270   0.01203  Uiso   0.87
C299   C     0.50000   0.68200   0.26859   0.01203  Uiso   0.87
H300   H     0.50000   0.63962   0.28146   0.01203  Uiso   0.87
O301   O     0.00000   0.90340   0.82730   0.01203  Uiso   0.87
C302   C     0.00000   0.81800   0.73141   0.01203  Uiso   0.87
H303   H     0.00000   0.86038   0.71854   0.01203  Uiso   0.87
O304   O     0.00000   0.40340   0.32730   0.01203  Uiso   0.87
C305   C     0.00000   0.31800   0.23141   0.01203  Uiso   0.87
H306   H     0.00000   0.36038   0.21854   0.01203  Uiso   0.87
O307   O     0.50000   0.90340   0.32730   0.01203  Uiso   0.87
C308   C     0.50000   0.81800   0.23141   0.01203  Uiso   0.87
H309   H     0.50000   0.86038   0.21854   0.01203  Uiso   0.87
O310   O     0.50000   0.40340   0.82730   0.01203  Uiso   0.87
C311   C     0.50000   0.31800   0.73141   0.01203  Uiso   0.87
H312   H     0.50000   0.36038   0.71854   0.01203  Uiso   0.87
C313   C     0.15115   0.15115   0.00000   0.01203  Uiso   0.87
C314   C     0.20257   0.20257   0.00000   0.01203  Uiso   0.87
C315   C     0.15115   0.65115   0.50000   0.01203  Uiso   0.87
C316   C     0.20257   0.70257   0.50000   0.01203  Uiso   0.87
C317   C     0.65115   0.15115   0.50000   0.01203  Uiso   0.87
C318   C     0.70257   0.20257   0.50000   0.01203  Uiso   0.87
C319   C     0.65115   0.65115   0.00000   0.01203  Uiso   0.87
C320   C     0.70257   0.70257   0.00000   0.01203  Uiso   0.87
C321   C     0.84885   0.84885   0.00000   0.01203  Uiso   0.87
C322   C     0.79743   0.79743   0.00000   0.01203  Uiso   0.87
C323   C     0.84885   0.34885   0.50000   0.01203  Uiso   0.87
C324   C     0.79743   0.29743   0.50000   0.01203  Uiso   0.87
C325   C     0.34885   0.84885   0.50000   0.01203  Uiso   0.87
C326   C     0.29743   0.79743   0.50000   0.01203  Uiso   0.87
C327   C     0.34885   0.34885   0.00000   0.01203  Uiso   0.87
C328   C     0.29743   0.29743   0.00000   0.01203  Uiso   0.87
C329   C     0.84885   0.15115   0.00000   0.01203  Uiso   0.87
C330   C     0.79743   0.20257   0.00000   0.01203  Uiso   0.87
C331   C     0.84885   0.65115   0.50000   0.01203  Uiso   0.87
C332   C     0.79743   0.70257   0.50000   0.01203  Uiso   0.87
C333   C     0.34885   0.15115   0.50000   0.01203  Uiso   0.87
C334   C     0.29743   0.20257   0.50000   0.01203  Uiso   0.87
C335   C     0.34885   0.65115   0.00000   0.01203  Uiso   0.87
C336   C     0.29743   0.70257   0.00000   0.01203  Uiso   0.87
C337   C     0.15115   0.84885   0.00000   0.01203  Uiso   0.87
C338   C     0.20257   0.79743   0.00000   0.01203  Uiso   0.87
C339   C     0.15115   0.34885   0.50000   0.01203  Uiso   0.87
C340   C     0.20257   0.29743   0.50000   0.01203  Uiso   0.87
C341   C     0.65115   0.84885   0.50000   0.01203  Uiso   0.87
C342   C     0.70257   0.79743   0.50000   0.01203  Uiso   0.87
C343   C     0.65115   0.34885   0.00000   0.01203  Uiso   0.87
C344   C     0.70257   0.29743   0.00000   0.01203  Uiso   0.87
C345   C     0.00000   0.15115   0.15115   0.01203  Uiso   0.87
C346   C     0.00000   0.20257   0.20257   0.01203  Uiso   0.87
C347   C     0.00000   0.65115   0.65115   0.01203  Uiso   0.87
C348   C     0.00000   0.70257   0.70257   0.01203  Uiso   0.87
C349   C     0.50000   0.15115   0.65115   0.01203  Uiso   0.87
C350   C     0.50000   0.20257   0.70257   0.01203  Uiso   0.87
C351   C     0.50000   0.65115   0.15115   0.01203  Uiso   0.87
C352   C     0.50000   0.70257   0.20257   0.01203  Uiso   0.87
C353   C     0.00000   0.84885   0.84885   0.01203  Uiso   0.87
C354   C     0.00000   0.79743   0.79743   0.01203  Uiso   0.87
C355   C     0.00000   0.34885   0.34885   0.01203  Uiso   0.87
C356   C     0.00000   0.29743   0.29743   0.01203  Uiso   0.87
C357   C     0.50000   0.84885   0.34885   0.01203  Uiso   0.87
C358   C     0.50000   0.79743   0.29743   0.01203  Uiso   0.87
C359   C     0.50000   0.34885   0.84885   0.01203  Uiso   0.87
C360   C     0.50000   0.29743   0.79743   0.01203  Uiso   0.87
C361   C     0.00000   0.84885   0.15115   0.01203  Uiso   0.87
C362   C     0.00000   0.79743   0.20257   0.01203  Uiso   0.87
C363   C     0.00000   0.34885   0.65115   0.01203  Uiso   0.87
C364   C     0.00000   0.29743   0.70257   0.01203  Uiso   0.87
C365   C     0.50000   0.84885   0.65115   0.01203  Uiso   0.87
C366   C     0.50000   0.79743   0.70257   0.01203  Uiso   0.87
C367   C     0.50000   0.34885   0.15115   0.01203  Uiso   0.87
C368   C     0.50000   0.29743   0.20257   0.01203  Uiso   0.87
C369   C     0.00000   0.15115   0.84885   0.01203  Uiso   0.87
C370   C     0.00000   0.20257   0.79743   0.01203  Uiso   0.87
C371   C     0.00000   0.65115   0.34885   0.01203  Uiso   0.87
C372   C     0.00000   0.70257   0.29743   0.01203  Uiso   0.87
C373   C     0.50000   0.15115   0.34885   0.01203  Uiso   0.87
C374   C     0.50000   0.20257   0.29743   0.01203  Uiso   0.87
C375   C     0.50000   0.65115   0.84885   0.01203  Uiso   0.87
C376   C     0.50000   0.70257   0.79743   0.01203  Uiso   0.87
C377   C     0.15115   0.00000   0.15115   0.01203  Uiso   0.87
C378   C     0.20257   0.00000   0.20257   0.01203  Uiso   0.87
C379   C     0.15115   0.50000   0.65115   0.01203  Uiso   0.87
C380   C     0.20257   0.50000   0.70257   0.01203  Uiso   0.87
C381   C     0.65115   0.00000   0.65115   0.01203  Uiso   0.87
C382   C     0.70257   0.00000   0.70257   0.01203  Uiso   0.87
C383   C     0.65115   0.50000   0.15115   0.01203  Uiso   0.87
C384   C     0.70257   0.50000   0.20257   0.01203  Uiso   0.87
C385   C     0.84885   0.00000   0.84885   0.01203  Uiso   0.87
C386   C     0.79743   0.00000   0.79743   0.01203  Uiso   0.87
C387   C     0.84885   0.50000   0.34885   0.01203  Uiso   0.87
C388   C     0.79743   0.50000   0.29743   0.01203  Uiso   0.87
C389   C     0.34885   0.00000   0.34885   0.01203  Uiso   0.87
C390   C     0.29743   0.00000   0.29743   0.01203  Uiso   0.87
C391   C     0.34885   0.50000   0.84885   0.01203  Uiso   0.87
C392   C     0.29743   0.50000   0.79743   0.01203  Uiso   0.87
C393   C     0.15115   0.00000   0.84885   0.01203  Uiso   0.87
C394   C     0.20257   0.00000   0.79743   0.01203  Uiso   0.87
C395   C     0.15115   0.50000   0.34885   0.01203  Uiso   0.87
C396   C     0.20257   0.50000   0.29743   0.01203  Uiso   0.87
C397   C     0.65115   0.00000   0.34885   0.01203  Uiso   0.87
C398   C     0.70257   0.00000   0.29743   0.01203  Uiso   0.87
C399   C     0.65115   0.50000   0.84885   0.01203  Uiso   0.87
C400   C     0.70257   0.50000   0.79743   0.01203  Uiso   0.87
C401   C     0.84885   0.00000   0.15115   0.01203  Uiso   0.87
C402   C     0.79743   0.00000   0.20257   0.01203  Uiso   0.87
C403   C     0.84885   0.50000   0.65115   0.01203  Uiso   0.87
C404   C     0.79743   0.50000   0.70257   0.01203  Uiso   0.87
C405   C     0.34885   0.00000   0.65115   0.01203  Uiso   0.87
C406   C     0.29743   0.00000   0.70257   0.01203  Uiso   0.87
C407   C     0.34885   0.50000   0.15115   0.01203  Uiso   0.87
C408   C     0.29743   0.50000   0.20257   0.01203  Uiso   0.87
O409   O     0.07010   0.07010   0.07010   0.01570  Uiso   0.50
H410   H     0.09510   0.09510   0.09510   0.01874  Uiso   0.50
O411   O     0.07010   0.57010   0.57010   0.01570  Uiso   0.50
H412   H     0.09510   0.59510   0.59510   0.01874  Uiso   0.50
O413   O     0.57010   0.07010   0.57010   0.01570  Uiso   0.50
H414   H     0.59510   0.09510   0.59510   0.01874  Uiso   0.50
O415   O     0.57010   0.57010   0.07010   0.01570  Uiso   0.50
H416   H     0.59510   0.59510   0.09510   0.01874  Uiso   0.50
O417   O     0.92990   0.92990   0.07010   0.01570  Uiso   0.50
H418   H     0.90490   0.90490   0.09510   0.01874  Uiso   0.50
O419   O     0.92990   0.42990   0.57010   0.01570  Uiso   0.50
H420   H     0.90490   0.40490   0.59510   0.01874  Uiso   0.50
O421   O     0.42990   0.92990   0.57010   0.01570  Uiso   0.50
H422   H     0.40490   0.90490   0.59510   0.01874  Uiso   0.50
O423   O     0.42990   0.42990   0.07010   0.01570  Uiso   0.50
H424   H     0.40490   0.40490   0.09510   0.01874  Uiso   0.50
O425   O     0.92990   0.07010   0.92990   0.01570  Uiso   0.50
H426   H     0.90490   0.09510   0.90490   0.01874  Uiso   0.50
O427   O     0.92990   0.57010   0.42990   0.01570  Uiso   0.50
H428   H     0.90490   0.59510   0.40490   0.01874  Uiso   0.50
O429   O     0.42990   0.07010   0.42990   0.01570  Uiso   0.50
H430   H     0.40490   0.09510   0.40490   0.01874  Uiso   0.50
O431   O     0.42990   0.57010   0.92990   0.01570  Uiso   0.50
H432   H     0.40490   0.59510   0.90490   0.01874  Uiso   0.50
O433   O     0.07010   0.92990   0.92990   0.01570  Uiso   0.50
H434   H     0.09510   0.90490   0.90490   0.01874  Uiso   0.50
O435   O     0.07010   0.42990   0.42990   0.01570  Uiso   0.50
H436   H     0.09510   0.40490   0.40490   0.01874  Uiso   0.50
O437   O     0.57010   0.92990   0.42990   0.01570  Uiso   0.50
H438   H     0.59510   0.90490   0.40490   0.01874  Uiso   0.50
O439   O     0.57010   0.42990   0.92990   0.01570  Uiso   0.50
H440   H     0.59510   0.40490   0.90490   0.01874  Uiso   0.50
O441   O     0.07010   0.07010   0.92990   0.01570  Uiso   0.50
H442   H     0.09510   0.09510   0.90490   0.01874  Uiso   0.50
O443   O     0.07010   0.57010   0.42990   0.01570  Uiso   0.50
H444   H     0.09510   0.59510   0.40490   0.01874  Uiso   0.50
O445   O     0.57010   0.07010   0.42990   0.01570  Uiso   0.50
H446   H     0.59510   0.09510   0.40490   0.01874  Uiso   0.50
O447   O     0.57010   0.57010   0.92990   0.01570  Uiso   0.50
H448   H     0.59510   0.59510   0.90490   0.01874  Uiso   0.50
O449   O     0.92990   0.92990   0.92990   0.01570  Uiso   0.50
H450   H     0.90490   0.90490   0.90490   0.01874  Uiso   0.50
O451   O     0.92990   0.42990   0.42990   0.01570  Uiso   0.50
H452   H     0.90490   0.40490   0.40490   0.01874  Uiso   0.50
O453   O     0.42990   0.92990   0.42990   0.01570  Uiso   0.50
H454   H     0.40490   0.90490   0.40490   0.01874  Uiso   0.50
O455   O     0.42990   0.42990   0.92990   0.01570  Uiso   0.50
H456   H     0.40490   0.40490   0.90490   0.01874  Uiso   0.50
O457   O     0.07010   0.92990   0.07010   0.01570  Uiso   0.50
H458   H     0.09510   0.90490   0.09510   0.01874  Uiso   0.50
O459   O     0.07010   0.42990   0.57010   0.01570  Uiso   0.50
H460   H     0.09510   0.40490   0.59510   0.01874  Uiso   0.50
O461   O     0.57010   0.92990   0.57010   0.01570  Uiso   0.50
H462   H     0.59510   0.90490   0.59510   0.01874  Uiso   0.50
O463   O     0.57010   0.42990   0.07010   0.01570  Uiso   0.50
H464   H     0.59510   0.40490   0.09510   0.01874  Uiso   0.50
O465   O     0.92990   0.07010   0.07010   0.01570  Uiso   0.50
H466   H     0.90490   0.09510   0.09510   0.01874  Uiso   0.50
O467   O     0.92990   0.57010   0.57010   0.01570  Uiso   0.50
H468   H     0.90490   0.59510   0.59510   0.01874  Uiso   0.50
O469   O     0.42990   0.07010   0.57010   0.01570  Uiso   0.50
H470   H     0.40490   0.09510   0.59510   0.01874  Uiso   0.50
O471   O     0.42990   0.57010   0.07010   0.01570  Uiso   0.50
H472   H     0.40490   0.59510   0.09510   0.01874  Uiso   0.50
loop_
_geom_bond_atom_site_label_1
_geom_bond_atom_site_label_2
_geom_bond_distance
_geom_bond_site_symmetry_2
_ccdc_geom_bond_type
Zr1    O25     2.288   .     S
Zr1    O61     2.288   1_545 S
Zr1    O217    2.288   1_554 S
Zr1    O253    2.288   .     S
Zr1    O409    2.302   .     S
Zr1    O433    2.302   1_544 S
Zr1    O441    2.302   1_554 S
Zr1    O457    2.302   1_545 S
Zr2    O28     2.288   .     S
Zr2    O64     2.288   .     S
Zr2    O220    2.288   .     S
Zr2    O256    2.288   .     S
Zr2    O411    2.302   .     S
Zr2    O435    2.302   .     S
Zr2    O443    2.302   .     S
Zr2    O459    2.302   .     S
Zr3    O31     2.288   .     S
Zr3    O67     2.288   1_545 S
Zr3    O223    2.288   .     S
Zr3    O259    2.288   .     S
Zr3    O413    2.302   .     S
Zr3    O437    2.302   1_545 S
Zr3    O445    2.302   .     S
Zr3    O461    2.302   1_545 S
Zr4    O34     2.288   .     S
Zr4    O70     2.288   .     S
Zr4    O226    2.288   1_554 S
Zr4    O262    2.288   .     S
Zr4    O415    2.302   .     S
Zr4    O439    2.302   1_554 S
Zr4    O447    2.302   1_554 S
Zr4    O463    2.302   .     S
Zr5    O37     2.288   1_545 S
Zr5    O49     2.288   .     S
Zr5    O241    2.288   1_554 S
Zr5    O229    2.288   .     S
Zr5    O417    2.302   1_545 S
Zr5    O425    2.302   1_554 S
Zr5    O449    2.302   1_544 S
Zr5    O465    2.302   .     S
Zr6    O40     2.288   .     S
Zr6    O52     2.288   .     S
Zr6    O244    2.288   .     S
Zr6    O232    2.288   .     S
Zr6    O419    2.302   .     S
Zr6    O427    2.302   .     S
Zr6    O451    2.302   .     S
Zr6    O467    2.302   .     S
Zr7    O43     2.288   1_545 S
Zr7    O55     2.288   .     S
Zr7    O247    2.288   .     S
Zr7    O235    2.288   .     S
Zr7    O421    2.302   1_545 S
Zr7    O429    2.302   .     S
Zr7    O453    2.302   1_545 S
Zr7    O469    2.302   .     S
Zr8    O46     2.288   .     S
Zr8    O58     2.288   .     S
Zr8    O250    2.288   1_554 S
Zr8    O238    2.288   .     S
Zr8    O423    2.302   .     S
Zr8    O431    2.302   1_554 S
Zr8    O455    2.302   1_554 S
Zr8    O471    2.302   .     S
Zr9    O73     2.288   .     S
Zr9    O109    2.288   1_554 S
Zr9    O205    2.288   1_455 S
Zr9    O169    2.288   .     S
Zr9    O409    2.302   .     S
Zr9    O425    2.302   1_454 S
Zr9    O465    2.302   1_455 S
Zr9    O441    2.302   1_554 S
Zr10   O76     2.288   .     S
Zr10   O112    2.288   .     S
Zr10   O208    2.288   1_455 S
Zr10   O172    2.288   .     S
Zr10   O411    2.302   .     S
Zr10   O427    2.302   1_455 S
Zr10   O467    2.302   1_455 S
Zr10   O443    2.302   .     S
Zr11   O79     2.288   .     S
Zr11   O115    2.288   .     S
Zr11   O211    2.288   .     S
Zr11   O175    2.288   .     S
Zr11   O413    2.302   .     S
Zr11   O429    2.302   .     S
Zr11   O469    2.302   .     S
Zr11   O445    2.302   .     S
Zr12   O82     2.288   .     S
Zr12   O118    2.288   1_554 S
Zr12   O214    2.288   .     S
Zr12   O178    2.288   .     S
Zr12   O415    2.302   .     S
Zr12   O431    2.302   1_554 S
Zr12   O471    2.302   .     S
Zr12   O447    2.302   1_554 S
Zr13   O85     2.288   1_554 S
Zr13   O97     2.288   .     S
Zr13   O181    2.288   1_455 S
Zr13   O193    2.288   .     S
Zr13   O433    2.302   1_554 S
Zr13   O417    2.302   1_455 S
Zr13   O449    2.302   1_454 S
Zr13   O457    2.302   .     S
Zr14   O88     2.288   .     S
Zr14   O100    2.288   .     S
Zr14   O184    2.288   1_455 S
Zr14   O196    2.288   .     S
Zr14   O435    2.302   .     S
Zr14   O419    2.302   1_455 S
Zr14   O451    2.302   1_455 S
Zr14   O459    2.302   .     S
Zr15   O91     2.288   .     S
Zr15   O103    2.288   .     S
Zr15   O187    2.288   .     S
Zr15   O199    2.288   .     S
Zr15   O437    2.302   .     S
Zr15   O421    2.302   .     S
Zr15   O453    2.302   .     S
Zr15   O461    2.302   .     S
Zr16   O94     2.288   1_554 S
Zr16   O106    2.288   .     S
Zr16   O190    2.288   .     S
Zr16   O202    2.288   .     S
Zr16   O439    2.302   1_554 S
Zr16   O423    2.302   .     S
Zr16   O455    2.302   1_554 S
Zr16   O463    2.302   .     S
Zr17   O121    2.288   .     S
Zr17   O157    2.288   1_455 S
Zr17   O277    2.288   1_545 S
Zr17   O289    2.288   .     S
Zr17   O409    2.302   .     S
Zr17   O417    2.302   1_445 S
Zr17   O457    2.302   1_545 S
Zr17   O465    2.302   1_455 S
Zr18   O124    2.288   .     S
Zr18   O160    2.288   1_455 S
Zr18   O280    2.288   .     S
Zr18   O292    2.288   .     S
Zr18   O411    2.302   .     S
Zr18   O419    2.302   1_455 S
Zr18   O459    2.302   .     S
Zr18   O467    2.302   1_455 S
Zr19   O127    2.288   .     S
Zr19   O163    2.288   .     S
Zr19   O283    2.288   1_545 S
Zr19   O295    2.288   .     S
Zr19   O413    2.302   .     S
Zr19   O421    2.302   1_545 S
Zr19   O461    2.302   1_545 S
Zr19   O469    2.302   .     S
Zr20   O130    2.288   .     S
Zr20   O166    2.288   .     S
Zr20   O286    2.288   .     S
Zr20   O298    2.288   .     S
Zr20   O415    2.302   .     S
Zr20   O423    2.302   .     S
Zr20   O463    2.302   .     S
Zr20   O471    2.302   .     S
Zr21   O133    2.288   1_455 S
Zr21   O145    2.288   .     S
Zr21   O301    2.288   1_545 S
Zr21   O265    2.288   .     S
Zr21   O425    2.302   1_455 S
Zr21   O433    2.302   1_545 S
Zr21   O449    2.302   1_445 S
Zr21   O441    2.302   .     S
Zr22   O136    2.288   1_455 S
Zr22   O148    2.288   .     S
Zr22   O304    2.288   .     S
Zr22   O268    2.288   .     S
Zr22   O427    2.302   1_455 S
Zr22   O435    2.302   .     S
Zr22   O451    2.302   1_455 S
Zr22   O443    2.302   .     S
Zr23   O139    2.288   .     S
Zr23   O151    2.288   .     S
Zr23   O307    2.288   1_545 S
Zr23   O271    2.288   .     S
Zr23   O429    2.302   .     S
Zr23   O437    2.302   1_545 S
Zr23   O453    2.302   1_545 S
Zr23   O445    2.302   .     S
Zr24   O142    2.288   .     S
Zr24   O154    2.288   .     S
Zr24   O310    2.288   .     S
Zr24   O274    2.288   .     S
Zr24   O431    2.302   .     S
Zr24   O439    2.302   .     S
Zr24   O455    2.302   .     S
Zr24   O447    2.302   .     S
O25    C313    1.218   .     S
C26    H27     0.920   .     S
C26    C314    1.436   .     A
C26    C191    1.451   .     A
O28    C315    1.218   .     S
C29    H30     0.920   .     S
C29    C316    1.436   .     A
C29    C188    1.451   .     A
O31    C317    1.218   .     S
C32    H33     0.920   .     S
C32    C318    1.436   .     A
C32    C185    1.451   .     A
O34    C319    1.218   .     S
C35    H36     0.920   .     S
C35    C320    1.436   .     A
C35    C182    1.451   .     A
O37    Zr5     2.288   1_565 S
O37    C321    1.218   .     S
C38    H39     0.920   .     S
C38    C322    1.436   .     A
C38    C179    1.451   .     A
O40    C323    1.218   .     S
C41    H42     0.920   .     S
C41    C324    1.436   .     A
C41    C176    1.451   .     A
O43    Zr7     2.288   1_565 S
O43    C325    1.218   .     S
C44    H45     0.920   .     S
C44    C326    1.436   .     A
C44    C173    1.451   .     A
O46    C327    1.218   .     S
C47    H48     0.920   .     S
C47    C328    1.436   .     A
C47    C170    1.451   .     A
O49    C329    1.218   .     S
C50    H51     0.920   .     S
C50    C330    1.436   .     A
C50    C203    1.451   .     A
O52    C331    1.218   .     S
C53    H54     0.920   .     S
C53    C332    1.436   .     A
C53    C200    1.451   .     A
O55    C333    1.218   .     S
C56    H57     0.920   .     S
C56    C334    1.436   .     A
C56    C197    1.451   .     A
O58    C335    1.218   .     S
C59    H60     0.920   .     S
C59    C336    1.436   .     A
C59    C194    1.451   .     A
O61    Zr1     2.288   1_565 S
O61    C337    1.218   .     S
C62    H63     0.920   .     S
C62    C338    1.436   .     A
C62    C215    1.451   .     A
O64    C339    1.218   .     S
C65    H66     0.920   .     S
C65    C340    1.436   .     A
C65    C212    1.451   .     A
O67    Zr3     2.288   1_565 S
O67    C341    1.218   .     S
C68    H69     0.920   .     S
C68    C342    1.436   .     A
C68    C209    1.451   .     A
O70    C343    1.218   .     S
C71    H72     0.920   .     S
C71    C344    1.436   .     A
C71    C206    1.451   .     A
O73    C345    1.218   .     S
C74    H75     0.920   .     S
C74    C346    1.436   .     A
C74    C305    1.451   .     A
O76    C347    1.218   .     S
C77    H78     0.920   .     S
C77    C348    1.436   .     A
C77    C302    1.451   .     A
O79    C349    1.218   .     S
C80    H81     0.920   .     S
C80    C350    1.436   .     A
C80    C311    1.451   .     A
O82    C351    1.218   .     S
C83    H84     0.920   .     S
C83    C352    1.436   .     A
C83    C308    1.451   .     A
O85    Zr13    2.288   1_556 S
O85    C353    1.218   .     S
C86    H87     0.920   .     S
C86    C354    1.436   .     A
C86    C293    1.451   .     A
O88    C355    1.218   .     S
C89    H90     0.920   .     S
C89    C356    1.436   .     A
C89    C290    1.451   .     A
O91    C357    1.218   .     S
C92    H93     0.920   .     S
C92    C358    1.436   .     A
C92    C299    1.451   .     A
O94    Zr16    2.288   1_556 S
O94    C359    1.218   .     S
C95    H96     0.920   .     S
C95    C360    1.436   .     A
C95    C296    1.451   .     A
O97    C361    1.218   .     S
C98    H99     0.920   .     S
C98    C362    1.436   .     A
C98    C269    1.451   .     A
O100   C363    1.218   .     S
C101   H102    0.920   .     S
C101   C364    1.436   .     A
C101   C266    1.451   .     A
O103   C365    1.218   .     S
C104   H105    0.920   .     S
C104   C366    1.436   .     A
C104   C275    1.451   .     A
O106   C367    1.218   .     S
C107   H108    0.920   .     S
C107   C368    1.436   .     A
C107   C272    1.451   .     A
O109   Zr9     2.288   1_556 S
O109   C369    1.218   .     S
C110   H111    0.920   .     S
C110   C370    1.436   .     A
C110   C281    1.451   .     A
O112   C371    1.218   .     S
C113   H114    0.920   .     S
C113   C372    1.436   .     A
C113   C278    1.451   .     A
O115   C373    1.218   .     S
C116   H117    0.920   .     S
C116   C374    1.436   .     A
C116   C287    1.451   .     A
O118   Zr12    2.288   1_556 S
O118   C375    1.218   .     S
C119   H120    0.920   .     S
C119   C376    1.436   .     A
C119   C284    1.451   .     A
O121   C377    1.218   .     S
C122   H123    0.920   .     S
C122   C378    1.436   .     A
C122   C248    1.451   .     A
O124   C379    1.218   .     S
C125   H126    0.920   .     S
C125   C380    1.436   .     A
C125   C251    1.451   .     A
O127   C381    1.218   .     S
C128   H129    0.920   .     S
C128   C382    1.436   .     A
C128   C242    1.451   .     A
O130   C383    1.218   .     S
C131   H132    0.920   .     S
C131   C384    1.436   .     A
C131   C245    1.451   .     A
O133   Zr21    2.288   1_655 S
O133   C385    1.218   .     S
C134   H135    0.920   .     S
C134   C386    1.436   .     A
C134   C260    1.451   .     A
O136   Zr22    2.288   1_655 S
O136   C387    1.218   .     S
C137   H138    0.920   .     S
C137   C388    1.436   .     A
C137   C263    1.451   .     A
O139   C389    1.218   .     S
C140   H141    0.920   .     S
C140   C390    1.436   .     A
C140   C254    1.451   .     A
O142   C391    1.218   .     S
C143   H144    0.920   .     S
C143   C392    1.436   .     A
C143   C257    1.451   .     A
O145   C393    1.218   .     S
C146   H147    0.920   .     S
C146   C394    1.436   .     A
C146   C236    1.451   .     A
O148   C395    1.218   .     S
C149   H150    0.920   .     S
C149   C396    1.436   .     A
C149   C239    1.451   .     A
O151   C397    1.218   .     S
C152   H153    0.920   .     S
C152   C398    1.436   .     A
C152   C230    1.451   .     A
O154   C399    1.218   .     S
C155   H156    0.920   .     S
C155   C400    1.436   .     A
C155   C233    1.451   .     A
O157   Zr17    2.288   1_655 S
O157   C401    1.218   .     S
C158   H159    0.920   .     S
C158   C402    1.436   .     A
C158   C224    1.451   .     A
O160   Zr18    2.288   1_655 S
O160   C403    1.218   .     S
C161   H162    0.920   .     S
C161   C404    1.436   .     A
C161   C227    1.451   .     A
O163   C405    1.218   .     S
C164   H165    0.920   .     S
C164   C406    1.436   .     A
C164   C218    1.451   .     A
O166   C407    1.218   .     S
C167   H168    0.920   .     S
C167   C408    1.436   .     A
C167   C221    1.451   .     A
O169   C313    1.218   .     S
C170   H171    0.920   .     S
C170   C314    1.436   .     A
O172   C315    1.218   .     S
C173   H174    0.920   .     S
C173   C316    1.436   .     A
O175   C317    1.218   .     S
C176   H177    0.920   .     S
C176   C318    1.436   .     A
O178   C319    1.218   .     S
C179   H180    0.920   .     S
C179   C320    1.436   .     A
O181   Zr13    2.288   1_655 S
O181   C321    1.218   .     S
C182   H183    0.920   .     S
C182   C322    1.436   .     A
O184   Zr14    2.288   1_655 S
O184   C323    1.218   .     S
C185   H186    0.920   .     S
C185   C324    1.436   .     A
O187   C325    1.218   .     S
C188   H189    0.920   .     S
C188   C326    1.436   .     A
O190   C327    1.218   .     S
C191   H192    0.920   .     S
C191   C328    1.436   .     A
O193   C337    1.218   .     S
C194   H195    0.920   .     S
C194   C338    1.436   .     A
O196   C339    1.218   .     S
C197   H198    0.920   .     S
C197   C340    1.436   .     A
O199   C341    1.218   .     S
C200   H201    0.920   .     S
C200   C342    1.436   .     A
O202   C343    1.218   .     S
C203   H204    0.920   .     S
C203   C344    1.436   .     A
O205   Zr9     2.288   1_655 S
O205   C329    1.218   .     S
C206   H207    0.920   .     S
C206   C330    1.436   .     A
O208   Zr10    2.288   1_655 S
O208   C331    1.218   .     S
C209   H210    0.920   .     S
C209   C332    1.436   .     A
O211   C333    1.218   .     S
C212   H213    0.920   .     S
C212   C334    1.436   .     A
O214   C335    1.218   .     S
C215   H216    0.920   .     S
C215   C336    1.436   .     A
O217   Zr1     2.288   1_556 S
O217   C393    1.218   .     S
C218   H219    0.920   .     S
C218   C394    1.436   .     A
O220   C395    1.218   .     S
C221   H222    0.920   .     S
C221   C396    1.436   .     A
O223   C397    1.218   .     S
C224   H225    0.920   .     S
C224   C398    1.436   .     A
O226   Zr4     2.288   1_556 S
O226   C399    1.218   .     S
C227   H228    0.920   .     S
C227   C400    1.436   .     A
O229   C401    1.218   .     S
C230   H231    0.920   .     S
C230   C402    1.436   .     A
O232   C403    1.218   .     S
C233   H234    0.920   .     S
C233   C404    1.436   .     A
O235   C405    1.218   .     S
C236   H237    0.920   .     S
C236   C406    1.436   .     A
O238   C407    1.218   .     S
C239   H240    0.920   .     S
C239   C408    1.436   .     A
O241   Zr5     2.288   1_556 S
O241   C385    1.218   .     S
C242   H243    0.920   .     S
C242   C386    1.436   .     A
O244   C387    1.218   .     S
C245   H246    0.920   .     S
C245   C388    1.436   .     A
O247   C389    1.218   .     S
C248   H249    0.920   .     S
C248   C390    1.436   .     A
O250   Zr8     2.288   1_556 S
O250   C391    1.218   .     S
C251   H252    0.920   .     S
C251   C392    1.436   .     A
O253   C377    1.218   .     S
C254   H255    0.920   .     S
C254   C378    1.436   .     A
O256   C379    1.218   .     S
C257   H258    0.920   .     S
C257   C380    1.436   .     A
O259   C381    1.218   .     S
C260   H261    0.920   .     S
C260   C382    1.436   .     A
O262   C383    1.218   .     S
C263   H264    0.920   .     S
C263   C384    1.436   .     A
O265   C369    1.218   .     S
C266   H267    0.920   .     S
C266   C370    1.436   .     A
O268   C371    1.218   .     S
C269   H270    0.920   .     S
C269   C372    1.436   .     A
O271   C373    1.218   .     S
C272   H273    0.920   .     S
C272   C374    1.436   .     A
O274   C375    1.218   .     S
C275   H276    0.920   .     S
C275   C376    1.436   .     A
O277   Zr17    2.288   1_565 S
O277   C361    1.218   .     S
C278   H279    0.920   .     S
C278   C362    1.436   .     A
O280   C363    1.218   .     S
C281   H282    0.920   .     S
C281   C364    1.436   .     A
O283   Zr19    2.288   1_565 S
O283   C365    1.218   .     S
C284   H285    0.920   .     S
C284   C366    1.436   .     A
O286   C367    1.218   .     S
C287   H288    0.920   .     S
C287   C368    1.436   .     A
O289   C345    1.218   .     S
C290   H291    0.920   .     S
C290   C346    1.436   .     A
O292   C347    1.218   .     S
C293   H294    0.920   .     S
C293   C348    1.436   .     A
O295   C349    1.218   .     S
C296   H297    0.920   .     S
C296   C350    1.436   .     A
O298   C351    1.218   .     S
C299   H300    0.920   .     S
C299   C352    1.436   .     A
O301   Zr21    2.288   1_565 S
O301   C353    1.218   .     S
C302   H303    0.920   .     S
C302   C354    1.436   .     A
O304   C355    1.218   .     S
C305   H306    0.920   .     S
C305   C356    1.436   .     A
O307   Zr23    2.288   1_565 S
O307   C357    1.218   .     S
C308   H309    0.920   .     S
C308   C358    1.436   .     A
O310   C359    1.218   .     S
C311   H312    0.920   .     S
C311   C360    1.436   .     A
C313   C314    1.510   .     S
C315   C316    1.510   .     S
C317   C318    1.510   .     S
C319   C320    1.510   .     S
C321   C322    1.510   .     S
C323   C324    1.510   .     S
C325   C326    1.510   .     S
C327   C328    1.510   .     S
C329   C330    1.510   .     S
C331   C332    1.510   .     S
C333   C334    1.510   .     S
C335   C336    1.510   .     S
C337   C338    1.510   .     S
C339   C340    1.510   .     S
C341   C342    1.510   .     S
C343   C344    1.510   .     S
C345   C346    1.510   .     S
C347   C348    1.510   .     S
C349   C350    1.510   .     S
C351   C352    1.510   .     S
C353   C354    1.510   .     S
C355   C356    1.510   .     S
C357   C358    1.510   .     S
C359   C360    1.510   .     S
C361   C362    1.510   .     S
C363   C364    1.510   .     S
C365   C366    1.510   .     S
C367   C368    1.510   .     S
C369   C370    1.510   .     S
C371   C372    1.510   .     S
C373   C374    1.510   .     S
C375   C376    1.510   .     S
C377   C378    1.510   .     S
C379   C380    1.510   .     S
C381   C382    1.510   .     S
C383   C384    1.510   .     S
C385   C386    1.510   .     S
C387   C388    1.510   .     S
C389   C390    1.510   .     S
C391   C392    1.510   .     S
C393   C394    1.510   .     S
C395   C396    1.510   .     S
C397   C398    1.510   .     S
C399   C400    1.510   .     S
C401   C402    1.510   .     S
C403   C404    1.510   .     S
C405   C406    1.510   .     S
C407   C408    1.510   .     S
O409   H410    0.899   .     S
O411   H412    0.899   .     S
O413   H414    0.899   .     S
O415   H416    0.899   .     S
O417   Zr5     2.302   1_565 S
O417   Zr13    2.302   1_655 S
O417   Zr17    2.302   1_665 S
O417   H418    0.899   .     S
O419   Zr14    2.302   1_655 S
O419   Zr18    2.302   1_655 S
O419   H420    0.899   .     S
O421   Zr7     2.302   1_565 S
O421   Zr19    2.302   1_565 S
O421   H422    0.899   .     S
O423   H424    0.899   .     S
O425   Zr5     2.302   1_556 S
O425   Zr9     2.302   1_656 S
O425   Zr21    2.302   1_655 S
O425   H426    0.899   .     S
O427   Zr10    2.302   1_655 S
O427   Zr22    2.302   1_655 S
O427   H428    0.899   .     S
O429   H430    0.899   .     S
O431   Zr8     2.302   1_556 S
O431   Zr12    2.302   1_556 S
O431   H432    0.899   .     S
O433   Zr1     2.302   1_566 S
O433   Zr13    2.302   1_556 S
O433   Zr21    2.302   1_565 S
O433   H434    0.899   .     S
O435   H436    0.899   .     S
O437   Zr3     2.302   1_565 S
O437   Zr23    2.302   1_565 S
O437   H438    0.899   .     S
O439   Zr4     2.302   1_556 S
O439   Zr16    2.302   1_556 S
O439   H440    0.899   .     S
O441   Zr9     2.302   1_556 S
O441   Zr1     2.302   1_556 S
O441   H442    0.899   .     S
O443   H444    0.899   .     S
O445   H446    0.899   .     S
O447   Zr12    2.302   1_556 S
O447   Zr4     2.302   1_556 S
O447   H448    0.899   .     S
O449   Zr13    2.302   1_656 S
O449   Zr5     2.302   1_566 S
O449   Zr21    2.302   1_665 S
O449   H450    0.899   .     S
O451   Zr14    2.302   1_655 S
O451   Zr22    2.302   1_655 S
O451   H452    0.899   .     S
O453   Zr7     2.302   1_565 S
O453   Zr23    2.302   1_565 S
O453   H454    0.899   .     S
O455   Zr16    2.302   1_556 S
O455   Zr8     2.302   1_556 S
O455   H456    0.899   .     S
O457   Zr1     2.302   1_565 S
O457   Zr17    2.302   1_565 S
O457   H458    0.899   .     S
O459   H460    0.899   .     S
O461   Zr3     2.302   1_565 S
O461   Zr19    2.302   1_565 S
O461   H462    0.899   .     S
O463   H464    0.899   .     S
O465   Zr9     2.302   1_655 S
O465   Zr17    2.302   1_655 S
O465   H466    0.899   .     S
O467   Zr10    2.302   1_655 S
O467   Zr18    2.302   1_655 S
O467   H468    0.899   .     S
O469   H470    0.899   .     S
O471   H472    0.899   .     S
