data_zif-67
_audit_creation_date              2025-06-13
_audit_creation_method            'Materials Studio'
_symmetry_space_group_name_H-M    'P1'
_symmetry_Int_Tables_number       1
_symmetry_cell_setting            triclinic
loop_
_symmetry_equiv_pos_as_xyz
  x,y,z
_cell_length_a                    17.1238
_cell_length_b                    17.1238
_cell_length_c                    17.1238
_cell_angle_alpha                 90.0000
_cell_angle_beta                  90.0000
_cell_angle_gamma                 90.0000
loop_
_atom_site_label
_atom_site_type_symbol
_atom_site_fract_x
_atom_site_fract_y
_atom_site_fract_z
_atom_site_U_iso_or_equiv
_atom_site_adp_type
_atom_site_occupancy
C1     C     0.09710   0.30900   0.36540   0.08800  Uani   1.00
H2     H     0.13610   0.27200   0.37310   0.10600  Uiso   1.00
H3     H     0.88150   0.36700   0.41610   0.13900  Uiso   0.50
H4     H     0.89710   0.44620   0.37280   0.13900  Uiso   0.50
H5     H     0.92860   0.43350   0.45790   0.13900  Uiso   0.50
N6     N     0.02960   0.31590   0.40940   0.06833  Uani   1.00
C7     C     0.59710   0.80900   0.86540   0.08800  Uani   1.00
H8     H     0.63610   0.77200   0.87310   0.10600  Uiso   1.00
H9     H     0.38150   0.86700   0.91610   0.13900  Uiso   0.50
H10    H     0.39710   0.94620   0.87280   0.13900  Uiso   0.50
H11    H     0.42860   0.93350   0.95790   0.13900  Uiso   0.50
N12    N     0.52960   0.81590   0.90940   0.06833  Uani   1.00
C13    C     0.90290   0.69100   0.36540   0.08800  Uani   1.00
H14    H     0.86390   0.72800   0.37310   0.10600  Uiso   1.00
H15    H     0.11850   0.63300   0.41610   0.13900  Uiso   0.50
H16    H     0.10290   0.55380   0.37280   0.13900  Uiso   0.50
H17    H     0.07140   0.56650   0.45790   0.13900  Uiso   0.50
N18    N     0.97040   0.68410   0.40940   0.06833  Uani   1.00
C19    C     0.40290   0.19100   0.86540   0.08800  Uani   1.00
H20    H     0.36390   0.22800   0.87310   0.10600  Uiso   1.00
H21    H     0.61850   0.13300   0.91610   0.13900  Uiso   0.50
H22    H     0.60290   0.05380   0.87280   0.13900  Uiso   0.50
H23    H     0.57140   0.06650   0.95790   0.13900  Uiso   0.50
N24    N     0.47040   0.18410   0.90940   0.06833  Uani   1.00
C25    C     0.90290   0.30900   0.63460   0.08800  Uani   1.00
H26    H     0.86390   0.27200   0.62690   0.10600  Uiso   1.00
H27    H     0.11850   0.36700   0.58390   0.13900  Uiso   0.50
H28    H     0.10290   0.44620   0.62720   0.13900  Uiso   0.50
H29    H     0.07140   0.43350   0.54210   0.13900  Uiso   0.50
N30    N     0.97040   0.31590   0.59060   0.06833  Uani   1.00
C31    C     0.40290   0.80900   0.13460   0.08800  Uani   1.00
H32    H     0.36390   0.77200   0.12690   0.10600  Uiso   1.00
H33    H     0.61850   0.86700   0.08390   0.13900  Uiso   0.50
H34    H     0.60290   0.94620   0.12720   0.13900  Uiso   0.50
H35    H     0.57140   0.93350   0.04210   0.13900  Uiso   0.50
N36    N     0.47040   0.81590   0.09060   0.06833  Uani   1.00
C37    C     0.09710   0.69100   0.63460   0.08800  Uani   1.00
H38    H     0.13610   0.72800   0.62690   0.10600  Uiso   1.00
H39    H     0.88150   0.63300   0.58390   0.13900  Uiso   0.50
H40    H     0.89710   0.55380   0.62720   0.13900  Uiso   0.50
H41    H     0.92860   0.56650   0.54210   0.13900  Uiso   0.50
N42    N     0.02960   0.68410   0.59060   0.06833  Uani   1.00
C43    C     0.59710   0.19100   0.13460   0.08800  Uani   1.00
H44    H     0.63610   0.22800   0.12690   0.10600  Uiso   1.00
H45    H     0.38150   0.13300   0.08390   0.13900  Uiso   0.50
H46    H     0.39710   0.05380   0.12720   0.13900  Uiso   0.50
H47    H     0.42860   0.06650   0.04210   0.13900  Uiso   0.50
N48    N     0.52960   0.18410   0.09060   0.06833  Uani   1.00
C49    C     0.36540   0.09710   0.30900   0.08800  Uani   1.00
H50    H     0.37310   0.13610   0.27200   0.10600  Uiso   1.00
H51    H     0.41610   0.88150   0.36700   0.13900  Uiso   0.50
H52    H     0.37280   0.89710   0.44620   0.13900  Uiso   0.50
H53    H     0.45790   0.92860   0.43350   0.13900  Uiso   0.50
N54    N     0.40940   0.02960   0.31590   0.06833  Uani   1.00
C55    C     0.86540   0.59710   0.80900   0.08800  Uani   1.00
H56    H     0.87310   0.63610   0.77200   0.10600  Uiso   1.00
H57    H     0.91610   0.38150   0.86700   0.13900  Uiso   0.50
H58    H     0.87280   0.39710   0.94620   0.13900  Uiso   0.50
H59    H     0.95790   0.42860   0.93350   0.13900  Uiso   0.50
N60    N     0.90940   0.52960   0.81590   0.06833  Uani   1.00
C61    C     0.36540   0.90290   0.69100   0.08800  Uani   1.00
H62    H     0.37310   0.86390   0.72800   0.10600  Uiso   1.00
N63    N     0.40940   0.97040   0.68410   0.06833  Uani   1.00
C64    C     0.86540   0.40290   0.19100   0.08800  Uani   1.00
H65    H     0.87310   0.36390   0.22800   0.10600  Uiso   1.00
H66    H     0.91610   0.61850   0.13300   0.13900  Uiso   0.50
H67    H     0.87280   0.60290   0.05380   0.13900  Uiso   0.50
H68    H     0.95790   0.57140   0.06650   0.13900  Uiso   0.50
N69    N     0.90940   0.47040   0.18410   0.06833  Uani   1.00
C70    C     0.63460   0.90290   0.30900   0.08800  Uani   1.00
H71    H     0.62690   0.86390   0.27200   0.10600  Uiso   1.00
H72    H     0.58390   0.11850   0.36700   0.13900  Uiso   0.50
H73    H     0.62720   0.10290   0.44620   0.13900  Uiso   0.50
H74    H     0.54210   0.07140   0.43350   0.13900  Uiso   0.50
N75    N     0.59060   0.97040   0.31590   0.06833  Uani   1.00
C76    C     0.13460   0.40290   0.80900   0.08800  Uani   1.00
H77    H     0.12690   0.36390   0.77200   0.10600  Uiso   1.00
H78    H     0.08390   0.61850   0.86700   0.13900  Uiso   0.50
H79    H     0.12720   0.60290   0.94620   0.13900  Uiso   0.50
H80    H     0.04210   0.57140   0.93350   0.13900  Uiso   0.50
N81    N     0.09060   0.47040   0.81590   0.06833  Uani   1.00
C82    C     0.63460   0.09710   0.69100   0.08800  Uani   1.00
H83    H     0.62690   0.13610   0.72800   0.10600  Uiso   1.00
N84    N     0.59060   0.02960   0.68410   0.06833  Uani   1.00
C85    C     0.13460   0.59710   0.19100   0.08800  Uani   1.00
H86    H     0.12690   0.63610   0.22800   0.10600  Uiso   1.00
H87    H     0.08390   0.38150   0.13300   0.13900  Uiso   0.50
H88    H     0.12720   0.39710   0.05380   0.13900  Uiso   0.50
H89    H     0.04210   0.42860   0.06650   0.13900  Uiso   0.50
N90    N     0.09060   0.52960   0.18410   0.06833  Uani   1.00
C91    C     0.30900   0.36540   0.09710   0.08800  Uani   1.00
H92    H     0.27200   0.37310   0.13610   0.10600  Uiso   1.00
H93    H     0.36700   0.41610   0.88150   0.13900  Uiso   0.50
H94    H     0.44620   0.37280   0.89710   0.13900  Uiso   0.50
H95    H     0.43350   0.45790   0.92860   0.13900  Uiso   0.50
N96    N     0.31590   0.40940   0.02960   0.06833  Uani   1.00
C97    C     0.80900   0.86540   0.59710   0.08800  Uani   1.00
H98    H     0.77200   0.87310   0.63610   0.10600  Uiso   1.00
H99    H     0.86700   0.91610   0.38150   0.13900  Uiso   0.50
H100   H     0.94620   0.87280   0.39710   0.13900  Uiso   0.50
H101   H     0.93350   0.95790   0.42860   0.13900  Uiso   0.50
N102   N     0.81590   0.90940   0.52960   0.06833  Uani   1.00
C103   C     0.69100   0.36540   0.90290   0.08800  Uani   1.00
H104   H     0.72800   0.37310   0.86390   0.10600  Uiso   1.00
N105   N     0.68410   0.40940   0.97040   0.06833  Uani   1.00
C106   C     0.19100   0.86540   0.40290   0.08800  Uani   1.00
H107   H     0.22800   0.87310   0.36390   0.10600  Uiso   1.00
H108   H     0.13300   0.91610   0.61850   0.13900  Uiso   0.50
H109   H     0.05380   0.87280   0.60290   0.13900  Uiso   0.50
H110   H     0.06650   0.95790   0.57140   0.13900  Uiso   0.50
N111   N     0.18410   0.90940   0.47040   0.06833  Uani   1.00
C112   C     0.30900   0.63460   0.90290   0.08800  Uani   1.00
H113   H     0.27200   0.62690   0.86390   0.10600  Uiso   1.00
N114   N     0.31590   0.59060   0.97040   0.06833  Uani   1.00
C115   C     0.80900   0.13460   0.40290   0.08800  Uani   1.00
H116   H     0.77200   0.12690   0.36390   0.10600  Uiso   1.00
H117   H     0.86700   0.08390   0.61850   0.13900  Uiso   0.50
H118   H     0.94620   0.12720   0.60290   0.13900  Uiso   0.50
H119   H     0.93350   0.04210   0.57140   0.13900  Uiso   0.50
N120   N     0.81590   0.09060   0.47040   0.06833  Uani   1.00
C121   C     0.69100   0.63460   0.09710   0.08800  Uani   1.00
H122   H     0.72800   0.62690   0.13610   0.10600  Uiso   1.00
H123   H     0.63300   0.58390   0.88150   0.13900  Uiso   0.50
H124   H     0.55380   0.62720   0.89710   0.13900  Uiso   0.50
H125   H     0.56650   0.54210   0.92860   0.13900  Uiso   0.50
N126   N     0.68410   0.59060   0.02960   0.06833  Uani   1.00
C127   C     0.19100   0.13460   0.59710   0.08800  Uani   1.00
H128   H     0.22800   0.12690   0.63610   0.10600  Uiso   1.00
H129   H     0.13300   0.08390   0.38150   0.13900  Uiso   0.50
H130   H     0.05380   0.12720   0.39710   0.13900  Uiso   0.50
H131   H     0.06650   0.04210   0.42860   0.13900  Uiso   0.50
N132   N     0.18410   0.09060   0.52960   0.06833  Uani   1.00
C133   C     0.30900   0.09710   0.36540   0.08800  Uani   1.00
H134   H     0.27200   0.13610   0.37310   0.10600  Uiso   1.00
N135   N     0.31590   0.02960   0.40940   0.06833  Uani   1.00
C136   C     0.80900   0.59710   0.86540   0.08800  Uani   1.00
H137   H     0.77200   0.63610   0.87310   0.10600  Uiso   1.00
N138   N     0.81590   0.52960   0.90940   0.06833  Uani   1.00
C139   C     0.69100   0.90290   0.36540   0.08800  Uani   1.00
H140   H     0.72800   0.86390   0.37310   0.10600  Uiso   1.00
N141   N     0.68410   0.97040   0.40940   0.06833  Uani   1.00
C142   C     0.19100   0.40290   0.86540   0.08800  Uani   1.00
H143   H     0.22800   0.36390   0.87310   0.10600  Uiso   1.00
N144   N     0.18410   0.47040   0.90940   0.06833  Uani   1.00
C145   C     0.30900   0.90290   0.63460   0.08800  Uani   1.00
H146   H     0.27200   0.86390   0.62690   0.10600  Uiso   1.00
H147   H     0.36700   0.11850   0.58390   0.13900  Uiso   0.50
H148   H     0.44620   0.10290   0.62720   0.13900  Uiso   0.50
H149   H     0.43350   0.07140   0.54210   0.13900  Uiso   0.50
N150   N     0.31590   0.97040   0.59060   0.06833  Uani   1.00
C151   C     0.80900   0.40290   0.13460   0.08800  Uani   1.00
H152   H     0.77200   0.36390   0.12690   0.10600  Uiso   1.00
N153   N     0.81590   0.47040   0.09060   0.06833  Uani   1.00
C154   C     0.69100   0.09710   0.63460   0.08800  Uani   1.00
H155   H     0.72800   0.13610   0.62690   0.10600  Uiso   1.00
H156   H     0.63300   0.88150   0.58390   0.13900  Uiso   0.50
H157   H     0.55380   0.89710   0.62720   0.13900  Uiso   0.50
H158   H     0.56650   0.92860   0.54210   0.13900  Uiso   0.50
N159   N     0.68410   0.02960   0.59060   0.06833  Uani   1.00
C160   C     0.19100   0.59710   0.13460   0.08800  Uani   1.00
H161   H     0.22800   0.63610   0.12690   0.10600  Uiso   1.00
N162   N     0.18410   0.52960   0.09060   0.06833  Uani   1.00
C163   C     0.09710   0.36540   0.30900   0.08800  Uani   1.00
H164   H     0.13610   0.37310   0.27200   0.10600  Uiso   1.00
N165   N     0.02960   0.40940   0.31590   0.06833  Uani   1.00
C166   C     0.59710   0.86540   0.80900   0.08800  Uani   1.00
H167   H     0.63610   0.87310   0.77200   0.10600  Uiso   1.00
N168   N     0.52960   0.90940   0.81590   0.06833  Uani   1.00
C169   C     0.90290   0.36540   0.69100   0.08800  Uani   1.00
H170   H     0.86390   0.37310   0.72800   0.10600  Uiso   1.00
N171   N     0.97040   0.40940   0.68410   0.06833  Uani   1.00
C172   C     0.40290   0.86540   0.19100   0.08800  Uani   1.00
H173   H     0.36390   0.87310   0.22800   0.10600  Uiso   1.00
N174   N     0.47040   0.90940   0.18410   0.06833  Uani   1.00
C175   C     0.90290   0.63460   0.30900   0.08800  Uani   1.00
H176   H     0.86390   0.62690   0.27200   0.10600  Uiso   1.00
N177   N     0.97040   0.59060   0.31590   0.06833  Uani   1.00
C178   C     0.40290   0.13460   0.80900   0.08800  Uani   1.00
H179   H     0.36390   0.12690   0.77200   0.10600  Uiso   1.00
N180   N     0.47040   0.09060   0.81590   0.06833  Uani   1.00
C181   C     0.09710   0.63460   0.69100   0.08800  Uani   1.00
H182   H     0.13610   0.62690   0.72800   0.10600  Uiso   1.00
N183   N     0.02960   0.59060   0.68410   0.06833  Uani   1.00
C184   C     0.59710   0.13460   0.19100   0.08800  Uani   1.00
H185   H     0.63610   0.12690   0.22800   0.10600  Uiso   1.00
N186   N     0.52960   0.09060   0.18410   0.06833  Uani   1.00
C187   C     0.36540   0.30900   0.09710   0.08800  Uani   1.00
H188   H     0.37310   0.27200   0.13610   0.10600  Uiso   1.00
N189   N     0.40940   0.31590   0.02960   0.06833  Uani   1.00
C190   C     0.86540   0.80900   0.59710   0.08800  Uani   1.00
H191   H     0.87310   0.77200   0.63610   0.10600  Uiso   1.00
N192   N     0.90940   0.81590   0.52960   0.06833  Uani   1.00
C193   C     0.36540   0.69100   0.90290   0.08800  Uani   1.00
H194   H     0.37310   0.72800   0.86390   0.10600  Uiso   1.00
H195   H     0.41610   0.63300   0.11850   0.13900  Uiso   0.50
H196   H     0.37280   0.55380   0.10290   0.13900  Uiso   0.50
H197   H     0.45790   0.56650   0.07140   0.13900  Uiso   0.50
N198   N     0.40940   0.68410   0.97040   0.06833  Uani   1.00
C199   C     0.86540   0.19100   0.40290   0.08800  Uani   1.00
H200   H     0.87310   0.22800   0.36390   0.10600  Uiso   1.00
N201   N     0.90940   0.18410   0.47040   0.06833  Uani   1.00
C202   C     0.63460   0.30900   0.90290   0.08800  Uani   1.00
H203   H     0.62690   0.27200   0.86390   0.10600  Uiso   1.00
H204   H     0.58390   0.36700   0.11850   0.13900  Uiso   0.50
H205   H     0.62720   0.44620   0.10290   0.13900  Uiso   0.50
H206   H     0.54210   0.43350   0.07140   0.13900  Uiso   0.50
N207   N     0.59060   0.31590   0.97040   0.06833  Uani   1.00
C208   C     0.13460   0.80900   0.40290   0.08800  Uani   1.00
H209   H     0.12690   0.77200   0.36390   0.10600  Uiso   1.00
N210   N     0.09060   0.81590   0.47040   0.06833  Uani   1.00
C211   C     0.63460   0.69100   0.09710   0.08800  Uani   1.00
H212   H     0.62690   0.72800   0.13610   0.10600  Uiso   1.00
N213   N     0.59060   0.68410   0.02960   0.06833  Uani   1.00
C214   C     0.13460   0.19100   0.59710   0.08800  Uani   1.00
H215   H     0.12690   0.22800   0.63610   0.10600  Uiso   1.00
N216   N     0.09060   0.18410   0.52960   0.06833  Uani   1.00
Co217  Co    0.00000   0.25000   0.50000   0.05083  Uani   1.00
Co218  Co    0.00000   0.75000   0.50000   0.05083  Uani   1.00
Co219  Co    0.50000   0.25000   0.00000   0.05083  Uani   1.00
Co220  Co    0.50000   0.00000   0.25000   0.05083  Uani   1.00
Co221  Co    0.50000   0.00000   0.75000   0.05083  Uani   1.00
Co222  Co    0.00000   0.50000   0.25000   0.05083  Uani   1.00
Co223  Co    0.25000   0.50000   0.00000   0.05083  Uani   1.00
Co224  Co    0.75000   0.50000   0.00000   0.05083  Uani   1.00
Co225  Co    0.25000   0.00000   0.50000   0.05083  Uani   1.00
Co226  Co    0.75000   0.00000   0.50000   0.05083  Uani   1.00
Co227  Co    0.00000   0.50000   0.75000   0.05083  Uani   1.00
Co228  Co    0.50000   0.75000   0.00000   0.05083  Uani   1.00
C229   C     0.99120   0.37700   0.37700   0.06167  Uani   1.00
C230   C     0.91830   0.40870   0.40870   0.09233  Uani   1.00
C231   C     0.49120   0.87700   0.87700   0.06167  Uani   1.00
C232   C     0.41830   0.90870   0.90870   0.09233  Uani   1.00
C233   C     0.00880   0.62300   0.37700   0.06167  Uani   1.00
C234   C     0.08170   0.59130   0.40870   0.09233  Uani   1.00
C235   C     0.50880   0.12300   0.87700   0.06167  Uani   1.00
C236   C     0.58170   0.09130   0.90870   0.09233  Uani   1.00
C237   C     0.00880   0.37700   0.62300   0.06167  Uani   1.00
C238   C     0.08170   0.40870   0.59130   0.09233  Uani   1.00
C239   C     0.50880   0.87700   0.12300   0.06167  Uani   1.00
C240   C     0.58170   0.90870   0.09130   0.09233  Uani   1.00
C241   C     0.99120   0.62300   0.62300   0.06167  Uani   1.00
C242   C     0.91830   0.59130   0.59130   0.09233  Uani   1.00
C243   C     0.49120   0.12300   0.12300   0.06167  Uani   1.00
C244   C     0.41830   0.09130   0.09130   0.09233  Uani   1.00
C245   C     0.37700   0.99120   0.37700   0.06167  Uani   1.00
C246   C     0.40870   0.91830   0.40870   0.09233  Uani   1.00
C247   C     0.87700   0.49120   0.87700   0.06167  Uani   1.00
C248   C     0.90870   0.41830   0.90870   0.09233  Uani   1.00
C249   C     0.37700   0.00880   0.62300   0.06167  Uani   1.00
C250   C     0.40870   0.08170   0.59130   0.09233  Uani   1.00
C251   C     0.87700   0.50880   0.12300   0.06167  Uani   1.00
C252   C     0.90870   0.58170   0.09130   0.09233  Uani   1.00
C253   C     0.62300   0.00880   0.37700   0.06167  Uani   1.00
C254   C     0.59130   0.08170   0.40870   0.09233  Uani   1.00
C255   C     0.12300   0.50880   0.87700   0.06167  Uani   1.00
C256   C     0.09130   0.58170   0.90870   0.09233  Uani   1.00
C257   C     0.62300   0.99120   0.62300   0.06167  Uani   1.00
C258   C     0.59130   0.91830   0.59130   0.09233  Uani   1.00
C259   C     0.12300   0.49120   0.12300   0.06167  Uani   1.00
C260   C     0.09130   0.41830   0.09130   0.09233  Uani   1.00
C261   C     0.37700   0.37700   0.99120   0.06167  Uani   1.00
C262   C     0.40870   0.40870   0.91830   0.09233  Uani   1.00
C263   C     0.87700   0.87700   0.49120   0.06167  Uani   1.00
C264   C     0.90870   0.90870   0.41830   0.09233  Uani   1.00
C265   C     0.62300   0.37700   0.00880   0.06167  Uani   1.00
C266   C     0.59130   0.40870   0.08170   0.09233  Uani   1.00
C267   C     0.12300   0.87700   0.50880   0.06167  Uani   1.00
C268   C     0.09130   0.90870   0.58170   0.09233  Uani   1.00
C269   C     0.37700   0.62300   0.00880   0.06167  Uani   1.00
C270   C     0.40870   0.59130   0.08170   0.09233  Uani   1.00
C271   C     0.87700   0.12300   0.50880   0.06167  Uani   1.00
C272   C     0.90870   0.09130   0.58170   0.09233  Uani   1.00
C273   C     0.62300   0.62300   0.99120   0.06167  Uani   1.00
C274   C     0.59130   0.59130   0.91830   0.09233  Uani   1.00
C275   C     0.12300   0.12300   0.49120   0.06167  Uani   1.00
C276   C     0.09130   0.09130   0.41830   0.09233  Uani   1.00
loop_
_atom_site_aniso_label
_atom_site_aniso_U_11
_atom_site_aniso_U_22
_atom_site_aniso_U_33
_atom_site_aniso_U_12
_atom_site_aniso_U_13
_atom_site_aniso_U_23
C1        0.08000   0.08600   0.09800   0.02100   0.02300   0.02500
N6        0.06500   0.06300   0.07700   0.00310   0.00790   0.00920
C7        0.08000   0.08600   0.09800   0.02100   0.02300   0.02500
N12       0.06500   0.06300   0.07700   0.00310   0.00790   0.00920
C13       0.08000   0.08600   0.09800   0.02100  -0.02300  -0.02500
N18       0.06500   0.06300   0.07700   0.00310  -0.00790  -0.00920
C19       0.08000   0.08600   0.09800   0.02100  -0.02300  -0.02500
N24       0.06500   0.06300   0.07700   0.00310  -0.00790  -0.00920
C25       0.08000   0.08600   0.09800  -0.02100   0.02300  -0.02500
N30       0.06500   0.06300   0.07700  -0.00310   0.00790  -0.00920
C31       0.08000   0.08600   0.09800  -0.02100   0.02300  -0.02500
N36       0.06500   0.06300   0.07700  -0.00310   0.00790  -0.00920
C37       0.08000   0.08600   0.09800  -0.02100  -0.02300   0.02500
N42       0.06500   0.06300   0.07700  -0.00310  -0.00790   0.00920
C43       0.08000   0.08600   0.09800  -0.02100  -0.02300   0.02500
N48       0.06500   0.06300   0.07700  -0.00310  -0.00790   0.00920
C49       0.09800   0.08000   0.08600   0.02300   0.02500   0.02100
N54       0.07700   0.06500   0.06300   0.00790   0.00920   0.00310
C55       0.09800   0.08000   0.08600   0.02300   0.02500   0.02100
N60       0.07700   0.06500   0.06300   0.00790   0.00920   0.00310
C61       0.09800   0.08000   0.08600  -0.02300  -0.02500   0.02100
N63       0.07700   0.06500   0.06300  -0.00790  -0.00920   0.00310
C64       0.09800   0.08000   0.08600  -0.02300  -0.02500   0.02100
N69       0.07700   0.06500   0.06300  -0.00790  -0.00920   0.00310
C70       0.09800   0.08000   0.08600   0.02300  -0.02500  -0.02100
N75       0.07700   0.06500   0.06300   0.00790  -0.00920  -0.00310
C76       0.09800   0.08000   0.08600   0.02300  -0.02500  -0.02100
N81       0.07700   0.06500   0.06300   0.00790  -0.00920  -0.00310
C82       0.09800   0.08000   0.08600  -0.02300   0.02500  -0.02100
N84       0.07700   0.06500   0.06300  -0.00790   0.00920  -0.00310
C85       0.09800   0.08000   0.08600  -0.02300   0.02500  -0.02100
N90       0.07700   0.06500   0.06300  -0.00790   0.00920  -0.00310
C91       0.08600   0.09800   0.08000   0.02500   0.02100   0.02300
N96       0.06300   0.07700   0.06500   0.00920   0.00310   0.00790
C97       0.08600   0.09800   0.08000   0.02500   0.02100   0.02300
N102      0.06300   0.07700   0.06500   0.00920   0.00310   0.00790
C103      0.08600   0.09800   0.08000  -0.02500   0.02100  -0.02300
N105      0.06300   0.07700   0.06500  -0.00920   0.00310  -0.00790
C106      0.08600   0.09800   0.08000  -0.02500   0.02100  -0.02300
N111      0.06300   0.07700   0.06500  -0.00920   0.00310  -0.00790
C112      0.08600   0.09800   0.08000  -0.02500  -0.02100   0.02300
N114      0.06300   0.07700   0.06500  -0.00920  -0.00310   0.00790
C115      0.08600   0.09800   0.08000  -0.02500  -0.02100   0.02300
N120      0.06300   0.07700   0.06500  -0.00920  -0.00310   0.00790
C121      0.08600   0.09800   0.08000   0.02500  -0.02100  -0.02300
N126      0.06300   0.07700   0.06500   0.00920  -0.00310  -0.00790
C127      0.08600   0.09800   0.08000   0.02500  -0.02100  -0.02300
N132      0.06300   0.07700   0.06500   0.00920  -0.00310  -0.00790
C133      0.08600   0.08000   0.09800   0.02100   0.02500   0.02300
N135      0.06300   0.06500   0.07700   0.00310   0.00920   0.00790
C136      0.08600   0.08000   0.09800   0.02100   0.02500   0.02300
N138      0.06300   0.06500   0.07700   0.00310   0.00920   0.00790
C139      0.08600   0.08000   0.09800   0.02100  -0.02500  -0.02300
N141      0.06300   0.06500   0.07700   0.00310  -0.00920  -0.00790
C142      0.08600   0.08000   0.09800   0.02100  -0.02500  -0.02300
N144      0.06300   0.06500   0.07700   0.00310  -0.00920  -0.00790
C145      0.08600   0.08000   0.09800  -0.02100  -0.02500   0.02300
N150      0.06300   0.06500   0.07700  -0.00310  -0.00920   0.00790
C151      0.08600   0.08000   0.09800  -0.02100  -0.02500   0.02300
N153      0.06300   0.06500   0.07700  -0.00310  -0.00920   0.00790
C154      0.08600   0.08000   0.09800  -0.02100   0.02500  -0.02300
N159      0.06300   0.06500   0.07700  -0.00310   0.00920  -0.00790
C160      0.08600   0.08000   0.09800  -0.02100   0.02500  -0.02300
N162      0.06300   0.06500   0.07700  -0.00310   0.00920  -0.00790
C163      0.08000   0.09800   0.08600   0.02300   0.02100   0.02500
N165      0.06500   0.07700   0.06300   0.00790   0.00310   0.00920
C166      0.08000   0.09800   0.08600   0.02300   0.02100   0.02500
N168      0.06500   0.07700   0.06300   0.00790   0.00310   0.00920
C169      0.08000   0.09800   0.08600  -0.02300   0.02100  -0.02500
N171      0.06500   0.07700   0.06300  -0.00790   0.00310  -0.00920
C172      0.08000   0.09800   0.08600  -0.02300   0.02100  -0.02500
N174      0.06500   0.07700   0.06300  -0.00790   0.00310  -0.00920
C175      0.08000   0.09800   0.08600   0.02300  -0.02100  -0.02500
N177      0.06500   0.07700   0.06300   0.00790  -0.00310  -0.00920
C178      0.08000   0.09800   0.08600   0.02300  -0.02100  -0.02500
N180      0.06500   0.07700   0.06300   0.00790  -0.00310  -0.00920
C181      0.08000   0.09800   0.08600  -0.02300  -0.02100   0.02500
N183      0.06500   0.07700   0.06300  -0.00790  -0.00310   0.00920
C184      0.08000   0.09800   0.08600  -0.02300  -0.02100   0.02500
N186      0.06500   0.07700   0.06300  -0.00790  -0.00310   0.00920
C187      0.09800   0.08600   0.08000   0.02500   0.02300   0.02100
N189      0.07700   0.06300   0.06500   0.00920   0.00790   0.00310
C190      0.09800   0.08600   0.08000   0.02500   0.02300   0.02100
N192      0.07700   0.06300   0.06500   0.00920   0.00790   0.00310
C193      0.09800   0.08600   0.08000  -0.02500  -0.02300   0.02100
N198      0.07700   0.06300   0.06500  -0.00920  -0.00790   0.00310
C199      0.09800   0.08600   0.08000  -0.02500  -0.02300   0.02100
N201      0.07700   0.06300   0.06500  -0.00920  -0.00790   0.00310
C202      0.09800   0.08600   0.08000  -0.02500   0.02300  -0.02100
N207      0.07700   0.06300   0.06500  -0.00920   0.00790  -0.00310
C208      0.09800   0.08600   0.08000  -0.02500   0.02300  -0.02100
N210      0.07700   0.06300   0.06500  -0.00920   0.00790  -0.00310
C211      0.09800   0.08600   0.08000   0.02500  -0.02300  -0.02100
N213      0.07700   0.06300   0.06500   0.00920  -0.00790  -0.00310
C214      0.09800   0.08600   0.08000   0.02500  -0.02300  -0.02100
N216      0.07700   0.06300   0.06500   0.00920  -0.00790  -0.00310
Co217     0.05240   0.04770   0.05240   0.00000   0.00000   0.00000
Co218     0.05240   0.04770   0.05240   0.00000   0.00000   0.00000
Co219     0.05240   0.04770   0.05240   0.00000   0.00000   0.00000
Co220     0.05240   0.05240   0.04770   0.00000   0.00000   0.00000
Co221     0.05240   0.05240   0.04770   0.00000   0.00000   0.00000
Co222     0.05240   0.05240   0.04770   0.00000   0.00000   0.00000
Co223     0.04770   0.05240   0.05240   0.00000   0.00000   0.00000
Co224     0.04770   0.05240   0.05240   0.00000   0.00000   0.00000
Co225     0.04770   0.05240   0.05240   0.00000   0.00000   0.00000
Co226     0.04770   0.05240   0.05240   0.00000   0.00000   0.00000
Co227     0.05240   0.05240   0.04770   0.00000   0.00000   0.00000
Co228     0.05240   0.04770   0.05240   0.00000   0.00000   0.00000
C229      0.05100   0.06700   0.06700  -0.00300  -0.00300   0.00300
C230      0.08500   0.09600   0.09600   0.02200   0.02200   0.01900
C231      0.05100   0.06700   0.06700  -0.00300  -0.00300   0.00300
C232      0.08500   0.09600   0.09600   0.02200   0.02200   0.01900
C233      0.05100   0.06700   0.06700  -0.00300   0.00300  -0.00300
C234      0.08500   0.09600   0.09600   0.02200  -0.02200  -0.01900
C235      0.05100   0.06700   0.06700  -0.00300   0.00300  -0.00300
C236      0.08500   0.09600   0.09600   0.02200  -0.02200  -0.01900
C237      0.05100   0.06700   0.06700   0.00300  -0.00300  -0.00300
C238      0.08500   0.09600   0.09600  -0.02200   0.02200  -0.01900
C239      0.05100   0.06700   0.06700   0.00300  -0.00300  -0.00300
C240      0.08500   0.09600   0.09600  -0.02200   0.02200  -0.01900
C241      0.05100   0.06700   0.06700   0.00300   0.00300   0.00300
C242      0.08500   0.09600   0.09600  -0.02200  -0.02200   0.01900
C243      0.05100   0.06700   0.06700   0.00300   0.00300   0.00300
C244      0.08500   0.09600   0.09600  -0.02200  -0.02200   0.01900
C245      0.06700   0.05100   0.06700  -0.00300   0.00300  -0.00300
C246      0.09600   0.08500   0.09600   0.02200   0.01900   0.02200
C247      0.06700   0.05100   0.06700  -0.00300   0.00300  -0.00300
C248      0.09600   0.08500   0.09600   0.02200   0.01900   0.02200
C249      0.06700   0.05100   0.06700   0.00300  -0.00300  -0.00300
C250      0.09600   0.08500   0.09600  -0.02200  -0.01900   0.02200
C251      0.06700   0.05100   0.06700   0.00300  -0.00300  -0.00300
C252      0.09600   0.08500   0.09600  -0.02200  -0.01900   0.02200
C253      0.06700   0.05100   0.06700  -0.00300  -0.00300   0.00300
C254      0.09600   0.08500   0.09600   0.02200  -0.01900  -0.02200
C255      0.06700   0.05100   0.06700  -0.00300  -0.00300   0.00300
C256      0.09600   0.08500   0.09600   0.02200  -0.01900  -0.02200
C257      0.06700   0.05100   0.06700   0.00300   0.00300   0.00300
C258      0.09600   0.08500   0.09600  -0.02200   0.01900  -0.02200
C259      0.06700   0.05100   0.06700   0.00300   0.00300   0.00300
C260      0.09600   0.08500   0.09600  -0.02200   0.01900  -0.02200
C261      0.06700   0.06700   0.05100   0.00300  -0.00300  -0.00300
C262      0.09600   0.09600   0.08500   0.01900   0.02200   0.02200
C263      0.06700   0.06700   0.05100   0.00300  -0.00300  -0.00300
C264      0.09600   0.09600   0.08500   0.01900   0.02200   0.02200
C265      0.06700   0.06700   0.05100  -0.00300  -0.00300   0.00300
C266      0.09600   0.09600   0.08500  -0.01900   0.02200  -0.02200
C267      0.06700   0.06700   0.05100  -0.00300  -0.00300   0.00300
C268      0.09600   0.09600   0.08500  -0.01900   0.02200  -0.02200
C269      0.06700   0.06700   0.05100  -0.00300   0.00300  -0.00300
C270      0.09600   0.09600   0.08500  -0.01900  -0.02200   0.02200
C271      0.06700   0.06700   0.05100  -0.00300   0.00300  -0.00300
C272      0.09600   0.09600   0.08500  -0.01900  -0.02200   0.02200
C273      0.06700   0.06700   0.05100   0.00300   0.00300   0.00300
C274      0.09600   0.09600   0.08500   0.01900  -0.02200  -0.02200
C275      0.06700   0.06700   0.05100   0.00300   0.00300   0.00300
C276      0.09600   0.09600   0.08500   0.01900  -0.02200  -0.02200
loop_
_geom_bond_atom_site_label_1
_geom_bond_atom_site_label_2
_geom_bond_distance
_geom_bond_site_symmetry_2
_ccdc_geom_bond_type
C1     N6      1.385   .     S
C1     C163    1.366   .     D
C1     H2      0.930   .     S
H3     C230    0.961   .     S
H4     C230    0.960   .     S
H5     C230    0.960   .     S
N6     Co217   1.984   .     S
N6     C229    1.355   1_455 D
C7     N12     1.385   .     S
C7     C166    1.366   .     D
C7     H8      0.930   .     S
H9     C232    0.961   .     S
H10    C232    0.960   .     S
H11    C232    0.960   .     S
N12    Co228   1.984   1_556 S
N12    C231    1.355   .     D
C13    N18     1.385   .     S
C13    C175    1.366   .     D
C13    H14     0.930   .     S
H15    C234    0.961   .     S
H16    C234    0.960   .     S
H17    C234    0.960   .     S
N18    Co218   1.984   1_655 S
N18    C233    1.355   1_655 D
C19    N24     1.385   .     S
C19    C178    1.366   .     D
C19    H20     0.930   .     S
H21    C236    0.961   .     S
H22    C236    0.960   .     S
H23    C236    0.960   .     S
N24    Co219   1.984   1_556 S
N24    C235    1.355   .     D
C25    N30     1.385   .     S
C25    C169    1.366   .     D
C25    H26     0.930   .     S
H27    C238    0.961   .     S
H28    C238    0.960   .     S
H29    C238    0.960   .     S
N30    Co217   1.984   1_655 S
N30    C237    1.355   1_655 D
C31    N36     1.385   .     S
C31    C172    1.366   .     D
C31    H32     0.930   .     S
H33    C240    0.961   .     S
H34    C240    0.960   .     S
H35    C240    0.960   .     S
N36    Co228   1.984   .     S
N36    C239    1.355   .     D
C37    N42     1.385   .     S
C37    C181    1.366   .     D
C37    H38     0.930   .     S
H39    C242    0.961   .     S
H40    C242    0.960   .     S
H41    C242    0.960   .     S
N42    Co218   1.984   .     S
N42    C241    1.355   1_455 D
C43    N48     1.385   .     S
C43    C184    1.366   .     D
C43    H44     0.930   .     S
H45    C244    0.961   .     S
H46    C244    0.960   .     S
H47    C244    0.960   .     S
N48    Co219   1.984   .     S
N48    C243    1.355   .     D
C49    N54     1.385   .     S
C49    C133    1.366   .     D
C49    H50     0.930   .     S
H51    C246    0.961   .     S
H52    C246    0.960   .     S
H53    C246    0.960   .     S
N54    Co220   1.984   .     S
N54    C245    1.355   1_545 D
C55    N60     1.385   .     S
C55    C136    1.366   .     D
C55    H56     0.930   .     S
H57    C248    0.961   .     S
H58    C248    0.960   .     S
H59    C248    0.960   .     S
N60    Co227   1.984   1_655 S
N60    C247    1.355   .     D
C61    N63     1.385   .     S
C61    C145    1.366   .     D
C61    H62     0.930   .     S
N63    Co221   1.984   1_565 S
N63    C249    1.355   1_565 D
C64    N69     1.385   .     S
C64    C151    1.366   .     D
C64    H65     0.930   .     S
H66    C252    0.961   .     S
H67    C252    0.960   .     S
H68    C252    0.960   .     S
N69    Co222   1.984   1_655 S
N69    C251    1.355   .     D
C70    N75     1.385   .     S
C70    C139    1.366   .     D
C70    H71     0.930   .     S
H72    C254    0.961   .     S
H73    C254    0.960   .     S
H74    C254    0.960   .     S
N75    Co220   1.984   1_565 S
N75    C253    1.355   1_565 D
C76    N81     1.385   .     S
C76    C142    1.366   .     D
C76    H77     0.930   .     S
H78    C256    0.961   .     S
H79    C256    0.960   .     S
H80    C256    0.960   .     S
N81    Co227   1.984   .     S
N81    C255    1.355   .     D
C82    N84     1.385   .     S
C82    C154    1.366   .     D
C82    H83     0.930   .     S
N84    Co221   1.984   .     S
N84    C257    1.355   1_545 D
C85    N90     1.385   .     S
C85    C160    1.366   .     D
C85    H86     0.930   .     S
H87    C260    0.961   .     S
H88    C260    0.960   .     S
H89    C260    0.960   .     S
N90    Co222   1.984   .     S
N90    C259    1.355   .     D
C91    N96     1.385   .     S
C91    C187    1.366   .     D
C91    H92     0.930   .     S
H93    C262    0.961   .     S
H94    C262    0.960   .     S
H95    C262    0.960   .     S
N96    Co223   1.984   .     S
N96    C261    1.355   1_554 D
C97    N102    1.385   .     S
C97    C190    1.366   .     D
C97    H98     0.930   .     S
H99    C264    0.961   .     S
H100   C264    0.960   .     S
H101   C264    0.960   .     S
N102   Co226   1.984   1_565 S
N102   C263    1.355   .     D
C103   N105    1.385   .     S
C103   C202    1.366   .     D
C103   H104    0.930   .     S
N105   Co224   1.984   1_556 S
N105   C265    1.355   1_556 D
C106   N111    1.385   .     S
C106   C208    1.366   .     D
C106   H107    0.930   .     S
H108   C268    0.961   .     S
H109   C268    0.960   .     S
H110   C268    0.960   .     S
N111   Co225   1.984   1_565 S
N111   C267    1.355   .     D
C112   N114    1.385   .     S
C112   C193    1.366   .     D
C112   H113    0.930   .     S
N114   Co223   1.984   1_556 S
N114   C269    1.355   1_556 D
C115   N120    1.385   .     S
C115   C199    1.366   .     D
C115   H116    0.930   .     S
H117   C272    0.961   .     S
H118   C272    0.960   .     S
H119   C272    0.960   .     S
N120   Co226   1.984   .     S
N120   C271    1.355   .     D
C121   N126    1.385   .     S
C121   C211    1.366   .     D
C121   H122    0.930   .     S
H123   C274    0.961   .     S
H124   C274    0.960   .     S
H125   C274    0.960   .     S
N126   Co224   1.984   .     S
N126   C273    1.355   1_554 D
C127   N132    1.385   .     S
C127   C214    1.366   .     D
C127   H128    0.930   .     S
H129   C276    0.961   .     S
H130   C276    0.960   .     S
H131   C276    0.960   .     S
N132   Co225   1.984   .     S
N132   C275    1.355   .     D
C133   N135    1.385   .     S
C133   H134    0.930   .     S
N135   Co225   1.984   .     S
N135   C245    1.355   1_545 S
C136   N138    1.385   .     S
C136   H137    0.930   .     S
N138   Co224   1.984   1_556 S
N138   C247    1.355   .     S
C139   N141    1.385   .     S
C139   H140    0.930   .     S
N141   Co226   1.984   1_565 S
N141   C253    1.355   1_565 S
C142   N144    1.385   .     S
C142   H143    0.930   .     S
N144   Co223   1.984   1_556 S
N144   C255    1.355   .     S
C145   N150    1.385   .     S
C145   H146    0.930   .     S
H147   C250    0.961   .     S
H148   C250    0.960   .     S
H149   C250    0.960   .     S
N150   Co225   1.984   1_565 S
N150   C249    1.355   1_565 S
C151   N153    1.385   .     S
C151   H152    0.930   .     S
N153   Co224   1.984   .     S
N153   C251    1.355   .     S
C154   N159    1.385   .     S
C154   H155    0.930   .     S
H156   C258    0.961   .     S
H157   C258    0.960   .     S
H158   C258    0.960   .     S
N159   Co226   1.984   .     S
N159   C257    1.355   1_545 S
C160   N162    1.385   .     S
C160   H161    0.930   .     S
N162   Co223   1.984   .     S
N162   C259    1.355   .     S
C163   N165    1.385   .     S
C163   H164    0.930   .     S
N165   Co222   1.984   .     S
N165   C229    1.355   1_455 S
C166   N168    1.385   .     S
C166   H167    0.930   .     S
N168   Co221   1.984   1_565 S
N168   C231    1.355   .     S
C169   N171    1.385   .     S
C169   H170    0.930   .     S
N171   Co227   1.984   1_655 S
N171   C237    1.355   1_655 S
C172   N174    1.385   .     S
C172   H173    0.930   .     S
N174   Co220   1.984   1_565 S
N174   C239    1.355   .     S
C175   N177    1.385   .     S
C175   H176    0.930   .     S
N177   Co222   1.984   1_655 S
N177   C233    1.355   1_655 S
C178   N180    1.385   .     S
C178   H179    0.930   .     S
N180   Co221   1.984   .     S
N180   C235    1.355   .     S
C181   N183    1.385   .     S
C181   H182    0.930   .     S
N183   Co227   1.984   .     S
N183   C241    1.355   1_455 S
C184   N186    1.385   .     S
C184   H185    0.930   .     S
N186   Co220   1.984   .     S
N186   C243    1.355   .     S
C187   N189    1.385   .     S
C187   H188    0.930   .     S
N189   Co219   1.984   .     S
N189   C261    1.355   1_554 S
C190   N192    1.385   .     S
C190   H191    0.930   .     S
N192   Co218   1.984   1_655 S
N192   C263    1.355   .     S
C193   N198    1.385   .     S
C193   H194    0.930   .     S
H195   C270    0.961   .     S
H196   C270    0.960   .     S
H197   C270    0.960   .     S
N198   Co228   1.984   1_556 S
N198   C269    1.355   1_556 S
C199   N201    1.385   .     S
C199   H200    0.930   .     S
N201   Co217   1.984   1_655 S
N201   C271    1.355   .     S
C202   N207    1.385   .     S
C202   H203    0.930   .     S
H204   C266    0.961   .     S
H205   C266    0.960   .     S
H206   C266    0.960   .     S
N207   Co219   1.984   1_556 S
N207   C265    1.355   1_556 S
C208   N210    1.385   .     S
C208   H209    0.930   .     S
N210   Co218   1.984   .     S
N210   C267    1.355   .     S
C211   N213    1.385   .     S
C211   H212    0.930   .     S
N213   Co228   1.984   .     S
N213   C273    1.355   1_554 S
C214   N216    1.385   .     S
C214   H215    0.930   .     S
N216   Co217   1.984   .     S
N216   C275    1.355   .     S
Co217  N30     1.984   1_455 S
Co217  N201    1.984   1_455 S
Co218  N18     1.984   1_455 S
Co218  N192    1.984   1_455 S
Co219  N207    1.984   1_554 S
Co219  N24     1.984   1_554 S
Co220  N75     1.984   1_545 S
Co220  N174    1.984   1_545 S
Co221  N63     1.984   1_545 S
Co221  N168    1.984   1_545 S
Co222  N177    1.984   1_455 S
Co222  N69     1.984   1_455 S
Co223  N114    1.984   1_554 S
Co223  N144    1.984   1_554 S
Co224  N105    1.984   1_554 S
Co224  N138    1.984   1_554 S
Co225  N150    1.984   1_545 S
Co225  N111    1.984   1_545 S
Co226  N141    1.984   1_545 S
Co226  N102    1.984   1_545 S
Co227  N171    1.984   1_455 S
Co227  N60     1.984   1_455 S
Co228  N198    1.984   1_554 S
Co228  N12     1.984   1_554 S
C229   C230    1.465   .     S
C229   N6      1.355   1_655 D
C229   N165    1.355   1_655 S
C231   C232    1.465   .     S
C233   C234    1.465   .     S
C233   N18     1.355   1_455 D
C233   N177    1.355   1_455 S
C235   C236    1.465   .     S
C237   C238    1.465   .     S
C237   N30     1.355   1_455 D
C237   N171    1.355   1_455 S
C239   C240    1.465   .     S
C241   C242    1.465   .     S
C241   N42     1.355   1_655 D
C241   N183    1.355   1_655 S
C243   C244    1.465   .     S
C245   C246    1.465   .     S
C245   N54     1.355   1_565 D
C245   N135    1.355   1_565 S
C247   C248    1.465   .     S
C249   C250    1.465   .     S
C249   N63     1.355   1_545 D
C249   N150    1.355   1_545 S
C251   C252    1.465   .     S
C253   C254    1.465   .     S
C253   N75     1.355   1_545 D
C253   N141    1.355   1_545 S
C255   C256    1.465   .     S
C257   C258    1.465   .     S
C257   N84     1.355   1_565 D
C257   N159    1.355   1_565 S
C259   C260    1.465   .     S
C261   C262    1.465   .     S
C261   N96     1.355   1_556 D
C261   N189    1.355   1_556 S
C263   C264    1.465   .     S
C265   C266    1.465   .     S
C265   N105    1.355   1_554 D
C265   N207    1.355   1_554 S
C267   C268    1.465   .     S
C269   C270    1.465   .     S
C269   N114    1.355   1_554 D
C269   N198    1.355   1_554 S
C271   C272    1.465   .     S
C273   C274    1.465   .     S
C273   N126    1.355   1_556 D
C273   N213    1.355   1_556 S
C275   C276    1.465   .     S
